5XPR - minimized
                    3D
 Schrodinger Suite 2021-2.
  0  0  0     0  0            999 V3000
M  V30 BEGIN CTAB
M  V30 COUNTS 6731 6803 0 0 0
M  V30 BEGIN ATOM
M  V30 1 N  -16.6147 -3.0135 29.9732 0
M  V30 2 C  -15.3509 -2.2746 29.7663 0 CFG=2
M  V30 3 C  -15.6468 -0.7871 29.4052 0
M  V30 4 O  -16.7887 -0.3225 29.4616 0
M  V30 5 C  -14.4164 -2.9784 28.7419 0
M  V30 6 S  -14.9483 -2.9274 27.0042 0
M  V30 7 N  -14.5737 -0.0689 29.0281 0
M  V30 8 C  -14.5749 1.3181 28.5552 0 CFG=2
M  V30 9 C  -13.8409 1.4213 27.1913 0
M  V30 10 O  -13.4646 2.5179 26.7826 0
M  V30 11 N  -13.6462 0.2842 26.4982 0
M  V30 12 C  -12.9194 0.1797 25.2306 0
M  V30 13 C  -13.6224 0.8623 24.0377 0
M  V30 14 O  -12.9838 1.7059 23.4062 0
M  V30 15 N  -14.9014 0.5468 23.7092 0
M  V30 16 C  -15.5560 1.0601 22.4845 0 CFG=2
M  V30 17 C  -15.9973 2.5398 22.5191 0
M  V30 18 O  -16.5261 3.0205 21.5164 0
M  V30 19 C  -16.7332 0.0930 22.2690 0
M  V30 20 C  -17.0893 -0.3813 23.6662 0
M  V30 21 C  -15.7348 -0.4702 24.3572 0
M  V30 22 N  -15.7404 3.2480 23.6331 0
M  V30 23 C  -15.9251 4.6956 23.7735 0 CFG=2
M  V30 24 C  -14.9886 5.4802 22.8311 0
M  V30 25 O  -15.4374 6.4367 22.1982 0
M  V30 26 C  -15.7188 5.1641 25.2552 0 CFG=2
M  V30 27 C  -16.9271 4.7969 26.1519 0
M  V30 28 C  -15.4257 6.6738 25.4397 0
M  V30 29 C  -17.2134 3.2954 26.3030 0
M  V30 30 N  -13.7231 5.0323 22.7323 0
M  V30 31 C  -12.7065 5.6207 21.8601 0 CFG=2
M  V30 32 C  -13.0265 5.3526 20.3746 0
M  V30 33 O  -12.7901 6.2375 19.5551 0
M  V30 34 C  -11.3118 5.0842 22.2734 0
M  V30 35 C  -10.1831 6.1414 22.2499 0
M  V30 36 C  -9.9110 6.7641 20.8751 0
M  V30 37 O  -10.1493 7.9847 20.7374 0
M  V30 38 O  -9.4750 6.0055 19.9817 0 CHG=-1
M  V30 39 N  -13.6113 4.1799 20.0595 0
M  V30 40 C  -14.0939 3.8368 18.7181 0 CFG=2
M  V30 41 C  -15.2009 4.7857 18.2286 0
M  V30 42 O  -15.1000 5.2518 17.0963 0
M  V30 43 C  -14.5796 2.3590 18.6152 0 CFG=2
M  V30 44 C  -13.3711 1.4025 18.7178 0
M  V30 45 C  -15.4186 2.0221 17.3577 0
M  V30 46 C  -13.7521 -0.0775 18.8534 0
M  V30 47 N  -16.1962 5.0806 19.0877 0
M  V30 48 C  -17.2601 6.0464 18.8021 0 CFG=2
M  V30 49 C  -16.7233 7.4622 18.5336 0
M  V30 50 O  -17.1529 8.0822 17.5616 0
M  V30 51 C  -18.3362 6.0246 19.9167 0
M  V30 52 C  -19.3617 7.1756 19.8103 0
M  V30 53 C  -20.5722 7.0448 20.7389 0
M  V30 54 C  -21.4985 8.2662 20.6041 0
M  V30 55 N  -22.7243 8.1232 21.4068 0 CHG=1
M  V30 56 N  -15.8066 7.9350 19.3951 0
M  V30 57 C  -15.2559 9.2870 19.3290 0 CFG=2
M  V30 58 C  -14.3090 9.4845 18.1283 0
M  V30 59 O  -14.3199 10.5633 17.5375 0
M  V30 60 C  -14.5903 9.6258 20.6821 0
M  V30 61 C  -14.3141 11.1330 20.9029 0
M  V30 62 C  -15.5625 12.0282 21.0506 0
M  V30 63 O  -15.3938 13.2556 20.8834 0
M  V30 64 O  -16.6659 11.5037 21.3300 0 CHG=-1
M  V30 65 N  -13.5650 8.4301 17.7468 0
M  V30 66 C  -12.7672 8.3779 16.5180 0 CFG=2
M  V30 67 C  -13.6520 8.3130 15.2532 0
M  V30 68 O  -13.2977 8.9199 14.2437 0
M  V30 69 C  -11.7993 7.1637 16.5190 0 CFG=2
M  V30 70 O  -10.7904 7.4109 17.4744 0
M  V30 71 C  -11.0773 6.8519 15.1934 0
M  V30 72 N  -14.7974 7.6154 15.3300 0
M  V30 73 C  -15.7739 7.5207 14.2437 0 CFG=2
M  V30 74 C  -16.6223 8.7825 14.0177 0
M  V30 75 O  -17.2080 8.8903 12.9419 0
M  V30 76 C  -16.6310 6.2458 14.3912 0
M  V30 77 C  -16.0690 4.9939 13.7275 0
M  V30 78 C  -14.6819 4.7554 13.5989 0
M  V30 79 C  -16.9597 3.9779 13.3355 0
M  V30 80 C  -14.2305 3.5952 12.9827 0
M  V30 81 C  -16.4962 2.8261 12.7175 0
M  V30 82 C  -15.1340 2.6435 12.5270 0
M  V30 83 N  -16.6319 9.7411 14.9654 0
M  V30 84 C  -17.1886 11.0804 14.7375 0 CFG=2
M  V30 85 C  -16.4324 11.8619 13.6478 0
M  V30 86 O  -17.0816 12.6032 12.9124 0
M  V30 87 C  -17.2414 11.9039 16.0387 0
M  V30 88 C  -18.3399 11.4731 17.0227 0
M  V30 89 C  -18.4657 12.4700 18.1838 0
M  V30 90 C  -19.5697 12.1075 19.1873 0
M  V30 91 N  -19.6158 13.0757 20.2971 0 CHG=1
M  V30 92 N  -15.1058 11.6485 13.5349 0
M  V30 93 C  -14.2668 12.1944 12.4634 0 CFG=2
M  V30 94 C  -14.5848 11.5860 11.0875 0
M  V30 95 O  -14.5111 12.3082 10.0962 0
M  V30 96 C  -12.7705 11.9954 12.7763 0
M  V30 97 C  -12.2558 12.7230 14.0045 0
M  V30 98 C  -11.7869 14.0487 13.9008 0
M  V30 99 C  -12.2180 12.0694 15.2514 0
M  V30 100 C  -11.2714 14.7062 15.0355 0
M  V30 101 C  -11.7001 12.7208 16.3853 0
M  V30 102 C  -11.2213 14.0403 16.2769 0
M  V30 103 O  -10.7127 14.6714 17.3741 0
M  V30 104 N  -14.9354 10.2890 11.0406 0
M  V30 105 C  -15.2843 9.5982 9.7979 0 CFG=2
M  V30 106 C  -16.6892 9.9938 9.3124 0
M  V30 107 O  -16.8367 10.3143 8.1356 0
M  V30 108 C  -15.1895 8.0477 9.9231 0 CFG=2
M  V30 109 C  -13.7381 7.6311 10.2615 0
M  V30 110 C  -15.6852 7.2896 8.6647 0
M  V30 111 C  -13.5638 6.1354 10.5582 0
M  V30 112 N  -17.6789 9.9880 10.2224 0
M  V30 113 C  -19.0791 10.2956 9.9179 0 CFG=2
M  V30 114 C  -19.2811 11.7485 9.4632 0
M  V30 115 O  -20.0519 11.9452 8.5286 0
M  V30 116 C  -19.9853 9.9481 11.1231 0
M  V30 117 C  -20.2189 8.4417 11.3195 0
M  V30 118 O  -19.3411 7.6167 11.0723 0
M  V30 119 N  -21.4161 8.0729 11.7803 0
M  V30 120 N  -18.5743 12.7251 10.0654 0
M  V30 121 C  -18.6479 14.1280 9.6395 0 CFG=2
M  V30 122 C  -18.0124 14.3691 8.2490 0
M  V30 123 O  -18.5576 15.1593 7.4817 0
M  V30 124 C  -18.0472 15.1124 10.6849 0 CFG=2
M  V30 125 O  -18.3478 16.4511 10.3345 0
M  V30 126 C  -16.5193 15.0491 10.8458 0
M  V30 127 N  -16.9137 13.6575 7.9332 0
M  V30 128 C  -16.2349 13.7182 6.6356 0 CFG=2
M  V30 129 C  -17.0611 13.0586 5.5179 0
M  V30 130 O  -17.2309 13.6784 4.4675 0
M  V30 131 C  -14.8115 13.0858 6.6981 0
M  V30 132 C  -14.1683 12.7300 5.3379 0
M  V30 133 C  -13.8546 14.0072 7.4737 0
M  V30 134 N  -17.5819 11.8430 5.7724 0
M  V30 135 C  -18.4413 11.1172 4.8374 0 CFG=2
M  V30 136 C  -19.7541 11.8666 4.5773 0
M  V30 137 O  -20.1023 12.0124 3.4137 0
M  V30 138 C  -18.7625 9.6626 5.2909 0
M  V30 139 C  -19.8852 8.9690 4.4799 0
M  V30 140 C  -17.5028 8.7808 5.2445 0
M  V30 141 N  -20.4238 12.3632 5.6315 0
M  V30 142 C  -21.6781 13.1062 5.5097 0 CFG=2
M  V30 143 C  -21.5534 14.4305 4.7320 0
M  V30 144 O  -22.4851 14.7705 4.0098 0
M  V30 145 C  -22.3314 13.2868 6.8907 0
M  V30 146 O  -21.6981 14.2814 7.6715 0
M  V30 147 N  -20.4063 15.1233 4.8466 0
M  V30 148 C  -20.1152 16.3456 4.0934 0 CFG=2
M  V30 149 C  -19.8153 16.0538 2.6115 0
M  V30 150 O  -20.2916 16.8036 1.7603 0
M  V30 151 C  -18.9776 17.1672 4.7260 0
M  V30 152 S  -19.5602 17.9341 6.2651 0
M  V30 153 N  -19.0885 14.9572 2.3214 0
M  V30 154 C  -18.8627 14.4586 0.9597 0 CFG=2
M  V30 155 C  -20.1719 13.9976 0.3050 0
M  V30 156 O  -20.4997 14.4817 -0.7742 0
M  V30 157 C  -17.8286 13.3083 0.9602 0
M  V30 158 C  -16.3609 13.7629 1.0944 0
M  V30 159 C  -15.4316 12.5482 1.3086 0
M  V30 160 C  -15.9097 14.6411 -0.0942 0
M  V30 161 N  -20.9100 13.1149 0.9968 0
M  V30 162 C  -22.2219 12.5926 0.6165 0 CFG=2
M  V30 163 C  -23.2638 13.6970 0.3728 0
M  V30 164 O  -24.0522 13.5532 -0.5551 0
M  V30 165 C  -22.7509 11.5864 1.6847 0
M  V30 166 C  -24.2628 11.3025 1.6719 0
M  V30 167 C  -21.9946 10.2500 1.6013 0
M  V30 168 N  -23.2209 14.7841 1.1618 0
M  V30 169 C  -24.0627 15.9616 0.9769 0 CFG=2
M  V30 170 C  -23.7894 16.6744 -0.3450 0
M  V30 171 O  -24.7039 16.7679 -1.1553 0
M  V30 172 C  -23.9263 16.9172 2.1697 0
M  V30 173 C  -24.7959 18.1620 2.1219 0
M  V30 174 C  -26.1783 18.0692 2.3905 0
M  V30 175 C  -24.2693 19.3839 1.6518 0
M  V30 176 C  -26.9901 19.1864 2.2512 0
M  V30 177 C  -25.0972 20.4900 1.5203 0
M  V30 178 C  -26.4500 20.3921 1.8217 0
M  V30 179 N  -22.5444 17.1443 -0.5308 0
M  V30 180 C  -22.1133 17.9171 -1.6963 0 CFG=2
M  V30 181 C  -22.2500 17.1279 -3.0149 0
M  V30 182 O  -22.8293 17.6527 -3.9640 0
M  V30 183 C  -20.6549 18.4332 -1.5237 0
M  V30 184 C  -20.0374 19.0718 -2.7869 0
M  V30 185 C  -20.5660 19.4404 -0.3614 0
M  V30 186 N  -21.7771 15.8700 -3.0240 0
M  V30 187 C  -21.8971 14.9469 -4.1555 0 CFG=2
M  V30 188 C  -23.3424 14.4739 -4.3940 0
M  V30 189 O  -23.6913 14.1857 -5.5377 0
M  V30 190 C  -20.9728 13.7258 -3.9371 0
M  V30 191 C  -19.4650 14.0527 -3.8169 0
M  V30 192 C  -18.6567 12.7836 -3.4721 0
M  V30 193 C  -18.9135 14.7868 -5.0551 0
M  V30 194 N  -24.1504 14.4082 -3.3227 0
M  V30 195 C  -25.5375 13.9601 -3.3577 0
M  V30 196 C  -26.4320 15.0463 -3.9454 0
M  V30 197 O  -27.1693 14.7595 -4.8850 0
M  V30 198 N  -26.3504 16.2884 -3.4347 0
M  V30 199 C  -27.1490 17.4067 -3.9392 0 CFG=2
M  V30 200 C  -26.8151 17.7801 -5.3953 0
M  V30 201 O  -27.7467 18.0558 -6.1444 0
M  V30 202 C  -27.1085 18.6883 -3.0528 0 CFG=2
M  V30 203 C  -25.7445 19.4223 -3.0110 0
M  V30 204 C  -27.6765 18.4179 -1.6446 0
M  V30 205 C  -25.7668 20.7503 -2.2483 0
M  V30 206 N  -25.5274 17.7238 -5.7835 0
M  V30 207 C  -25.0780 18.0225 -7.1448 0 CFG=2
M  V30 208 C  -25.4312 16.8955 -8.1303 0
M  V30 209 O  -25.9326 17.1980 -9.2118 0
M  V30 210 C  -23.5494 18.3346 -7.2098 0 CFG=2
M  V30 211 C  -23.2533 19.6763 -6.4985 0
M  V30 212 C  -22.9468 18.3612 -8.6366 0
M  V30 213 C  -21.7627 19.9482 -6.2512 0
M  V30 214 N  -25.1800 15.6338 -7.7380 0
M  V30 215 C  -25.3869 14.4546 -8.5767 0
M  V30 216 C  -26.8722 14.2534 -8.8928 0
M  V30 217 O  -27.2248 14.1003 -10.0617 0
M  V30 218 N  -27.7351 14.2819 -7.8610 0
M  V30 219 C  -29.1828 14.1096 -8.0068 0 CFG=2
M  V30 220 C  -29.8529 15.3012 -8.7056 0
M  V30 221 O  -30.7868 15.0562 -9.4609 0
M  V30 222 C  -29.8472 13.8402 -6.6422 0
M  V30 223 C  -29.4931 12.4774 -6.0408 0
M  V30 224 O  -29.7656 11.4404 -6.6392 0
M  V30 225 N  -28.9088 12.4724 -4.8433 0
M  V30 226 N  -29.3662 16.5403 -8.4944 0
M  V30 227 C  -29.8487 17.7324 -9.2063 0 CFG=2
M  V30 228 C  -29.5178 17.6971 -10.7083 0
M  V30 229 O  -30.3796 18.0568 -11.5095 0
M  V30 230 C  -29.3093 19.0153 -8.5415 0
M  V30 231 O  -29.7493 20.1924 -9.1920 0
M  V30 232 N  -28.3008 17.2392 -11.0574 0
M  V30 233 C  -27.8632 17.0431 -12.4415 0 CFG=2
M  V30 234 C  -28.7079 15.9671 -13.1426 0
M  V30 235 O  -29.2423 16.2477 -14.2111 0
M  V30 236 C  -26.3656 16.6432 -12.5488 0 CFG=2
M  V30 237 O  -25.5709 17.6785 -12.0073 0
M  V30 238 C  -25.8542 16.3753 -13.9787 0
M  V30 239 N  -28.8733 14.7999 -12.4938 0
M  V30 240 C  -29.7307 13.7020 -12.9421 0 CFG=2
M  V30 241 C  -31.1904 14.1364 -13.1575 0
M  V30 242 O  -31.7492 13.8410 -14.2100 0
M  V30 243 C  -29.5961 12.5171 -11.9523 0
M  V30 244 C  -30.5245 11.3004 -12.1895 0
M  V30 245 C  -30.4448 10.7508 -13.6241 0
M  V30 246 C  -30.2593 10.1946 -11.1503 0
M  V30 247 N  -31.7595 14.8604 -12.1822 0
M  V30 248 C  -33.1410 15.3311 -12.2036 0 CFG=2
M  V30 249 C  -33.4132 16.3639 -13.3117 0
M  V30 250 O  -34.4225 16.2316 -14.0032 0
M  V30 251 C  -33.5111 15.8453 -10.7977 0
M  V30 252 C  -35.0123 16.0655 -10.5526 0
M  V30 253 C  -35.8154 14.7744 -10.7805 0
M  V30 254 C  -35.2345 16.6045 -9.1324 0
M  V30 255 N  -32.4815 17.3157 -13.5095 0
M  V30 256 C  -32.5052 18.2782 -14.6148 0 CFG=2
M  V30 257 C  -32.4362 17.5977 -15.9932 0
M  V30 258 O  -33.1925 17.9837 -16.8795 0
M  V30 259 C  -31.3912 19.3361 -14.4233 0
M  V30 260 C  -31.2043 20.3435 -15.5548 0
M  V30 261 C  -32.3120 21.0425 -16.0841 0
M  V30 262 C  -29.9175 20.5871 -16.0820 0
M  V30 263 C  -32.1379 21.9605 -17.1377 0
M  V30 264 C  -29.7421 21.5111 -17.1315 0
M  V30 265 C  -30.8521 22.1974 -17.6611 0
M  V30 266 O  -30.6804 23.0964 -18.6728 0
M  V30 267 N  -31.5727 16.5790 -16.1284 0
M  V30 268 C  -31.3715 15.8013 -17.3508 0 CFG=2
M  V30 269 C  -32.6099 15.0092 -17.8195 0
M  V30 270 O  -32.8880 15.0148 -19.0199 0
M  V30 271 C  -30.1203 14.8778 -17.2106 0 CFG=2
M  V30 272 C  -28.8202 15.7056 -17.3224 0
M  V30 273 C  -30.0656 13.6315 -18.1193 0
M  V30 274 C  -28.5709 16.3492 -18.6884 0
M  V30 275 N  -33.3436 14.3805 -16.8826 0
M  V30 276 C  -34.5658 13.6255 -17.1828 0 CFG=2
M  V30 277 C  -35.7190 14.5261 -17.6722 0
M  V30 278 O  -36.4276 14.1214 -18.5921 0
M  V30 279 C  -35.0665 12.7853 -15.9707 0 CFG=2
M  V30 280 C  -34.0438 11.7178 -15.5165 0
M  V30 281 C  -36.4573 12.1352 -16.1668 0
M  V30 282 C  -33.8081 10.5563 -16.4880 0
M  V30 283 N  -35.8762 15.7189 -17.0690 0
M  V30 284 C  -36.9129 16.6841 -17.4469 0 CFG=2
M  V30 285 C  -36.5682 17.5145 -18.6914 0
M  V30 286 O  -37.4979 17.9488 -19.3725 0
M  V30 287 C  -37.2507 17.5990 -16.2513 0
M  V30 288 C  -38.0029 16.9127 -15.1233 0
M  V30 289 C  -39.2175 16.2432 -15.3878 0
M  V30 290 C  -37.5125 16.9614 -13.8019 0
M  V30 291 C  -39.9117 15.5949 -14.3499 0
M  V30 292 C  -38.2103 16.3138 -12.7643 0
M  V30 293 C  -39.3985 15.6118 -13.0395 0
M  V30 294 O  -40.0548 14.9622 -12.0354 0
M  V30 295 N  -35.2703 17.7152 -18.9816 0
M  V30 296 C  -34.8163 18.4497 -20.1641 0 CFG=2
M  V30 297 C  -34.9878 17.6207 -21.4502 0
M  V30 298 O  -35.3919 18.1742 -22.4728 0
M  V30 299 C  -33.3588 18.9212 -19.9591 0
M  V30 300 C  -32.8719 20.0052 -20.9382 0
M  V30 301 C  -33.6775 21.3123 -20.8210 0
M  V30 302 C  -33.0227 22.4942 -21.5479 0
M  V30 303 N  -33.8114 23.7296 -21.3869 0 CHG=1
M  V30 304 N  -34.7312 16.3053 -21.3508 0
M  V30 305 C  -34.9911 15.3208 -22.3970 0 CFG=2
M  V30 306 C  -36.4910 14.9621 -22.4098 0
M  V30 307 O  -37.0404 14.6082 -21.3686 0
M  V30 308 C  -34.0988 14.0857 -22.1311 0
M  V30 309 C  -34.0022 13.1233 -23.3195 0
M  V30 310 O  -34.9975 12.5344 -23.7257 0
M  V30 311 N  -32.8019 12.9325 -23.8687 0
M  V30 312 N  -37.1214 15.0461 -23.5915 0
M  V30 313 C  -38.5435 14.7433 -23.7816 0 CFG=2
M  V30 314 C  -38.8367 13.2357 -23.8625 0
M  V30 315 O  -39.9037 12.8121 -23.4179 0
M  V30 316 N  -37.8868 12.4587 -24.4091 0
M  V30 317 C  -37.9807 11.0064 -24.5638 0 CFG=2
M  V30 318 C  -37.9130 10.2779 -23.2100 0
M  V30 319 O  -38.6485 9.3113 -23.0331 0
M  V30 320 C  -36.8975 10.4488 -25.5065 0
M  V30 321 S  -36.9937 11.2186 -27.1454 0
M  V30 322 N  -37.0706 10.7675 -22.2797 0
M  V30 323 C  -36.9532 10.2473 -20.9119 0 CFG=2
M  V30 324 C  -38.0648 10.7388 -19.9709 0
M  V30 325 O  -38.3546 10.0429 -18.9984 0
M  V30 326 C  -35.5689 10.5842 -20.3239 0
M  V30 327 C  -34.4181 9.8825 -21.0587 0
M  V30 328 S  -32.8566 9.7897 -20.1431 0
M  V30 329 C  -32.3214 11.5165 -20.2132 0
M  V30 330 N  -38.6803 11.8965 -20.2755 0
M  V30 331 C  -39.8561 12.4074 -19.5658 0 CFG=2
M  V30 332 C  -41.1037 11.5335 -19.8152 0
M  V30 333 O  -41.8749 11.3147 -18.8816 0
M  V30 334 N  -41.2522 11.0311 -21.0545 0
M  V30 335 C  -42.2891 10.0760 -21.4500 0 CFG=2
M  V30 336 C  -41.9188 8.6332 -21.0517 0
M  V30 337 O  -42.7867 7.9026 -20.5746 0
M  V30 338 N  -40.6518 8.2490 -21.2836 0
M  V30 339 C  -40.1367 6.8956 -21.0831 0
M  V30 340 C  -40.0231 6.5485 -19.5855 0
M  V30 341 O  -40.0321 7.4589 -18.7554 0
M  V30 342 N  -39.8819 5.2496 -19.2224 0
M  V30 343 C  -39.7066 4.7836 -17.8260 0 CFG=2
M  V30 344 C  -38.5328 5.3629 -17.0039 0
M  V30 345 O  -38.5038 5.1295 -15.7976 0
M  V30 346 C  -39.5889 3.2542 -17.9512 0
M  V30 347 C  -40.3051 2.9180 -19.2443 0
M  V30 348 C  -39.9755 4.1082 -20.1361 0
M  V30 349 N  -37.6176 6.1309 -17.6261 0
M  V30 350 C  -36.5518 6.8975 -16.9573 0 CFG=2
M  V30 351 C  -37.0695 8.0642 -16.0903 0
M  V30 352 O  -36.2895 8.6222 -15.3229 0
M  V30 353 C  -35.5487 7.4490 -17.9907 0
M  V30 354 C  -34.8756 6.3696 -18.8302 0
M  V30 355 O  -35.3520 6.0518 -19.9133 0
M  V30 356 N  -33.7655 5.8111 -18.3449 0
M  V30 357 N  -38.3668 8.3966 -16.1739 0
M  V30 358 C  -39.0521 9.2741 -15.2242 0 CFG=2
M  V30 359 C  -39.1528 8.6631 -13.8018 0
M  V30 360 O  -39.2248 9.4158 -12.8310 0
M  V30 361 C  -40.4593 9.6512 -15.7598 0 CFG=2
M  V30 362 C  -41.1757 10.7599 -14.9575 0
M  V30 363 C  -41.3924 8.4397 -15.8798 0
M  V30 364 C  -40.3993 12.0749 -14.8439 0
M  V30 365 N  -39.0761 7.3231 -13.6917 0
M  V30 366 C  -38.9303 6.6112 -12.4204 0 CFG=2
M  V30 367 C  -37.5151 6.7583 -11.8261 0
M  V30 368 O  -37.3842 6.6909 -10.6060 0
M  V30 369 C  -39.2926 5.1194 -12.5801 0
M  V30 370 C  -40.6698 4.8316 -13.2254 0
M  V30 371 C  -40.8908 3.3147 -13.3416 0
M  V30 372 C  -41.8348 5.5279 -12.4967 0
M  V30 373 N  -36.4957 7.0017 -12.6733 0
M  V30 374 C  -35.1474 7.3900 -12.2447 0 CFG=2
M  V30 375 C  -35.0929 8.8524 -11.7406 0
M  V30 376 O  -34.3018 9.1288 -10.8419 0
M  V30 377 C  -34.0645 7.1268 -13.3408 0 CFG=2
M  V30 378 C  -33.8568 5.6063 -13.5380 0
M  V30 379 C  -32.7045 7.8270 -13.1163 0
M  V30 380 C  -33.0080 5.2467 -14.7685 0
M  V30 381 N  -35.9647 9.7420 -12.2552 0
M  V30 382 C  -36.1896 11.0784 -11.6874 0 CFG=2
M  V30 383 C  -36.9075 11.0416 -10.3264 0
M  V30 384 O  -36.5883 11.8598 -9.4661 0
M  V30 385 C  -36.9481 11.9718 -12.6788 0
M  V30 386 N  -37.8215 10.0737 -10.1355 0
M  V30 387 C  -38.4429 9.7708 -8.8440 0 CFG=2
M  V30 388 C  -37.4329 9.1909 -7.8351 0
M  V30 389 O  -37.4918 9.5596 -6.6636 0
M  V30 390 C  -39.6565 8.8448 -9.0591 0
M  V30 391 O  -40.2617 8.4540 -7.8426 0
M  V30 392 N  -36.5069 8.3379 -8.3123 0
M  V30 393 C  -35.3778 7.8188 -7.5396 0 CFG=2
M  V30 394 C  -34.4100 8.9386 -7.1376 0
M  V30 395 O  -34.0093 8.9664 -5.9808 0
M  V30 396 C  -34.6758 6.6826 -8.3172 0
M  V30 397 C  -33.4747 6.0075 -7.6061 0
M  V30 398 C  -33.4333 4.4925 -7.8775 0
M  V30 399 C  -32.1229 6.6686 -7.9585 0
M  V30 400 N  -34.1008 9.8617 -8.0663 0
M  V30 401 C  -33.2798 11.0489 -7.8238 0 CFG=2
M  V30 402 C  -33.8888 11.9946 -6.7791 0
M  V30 403 O  -33.1351 12.5408 -5.9820 0
M  V30 404 C  -33.0288 11.7957 -9.1406 0
M  V30 405 N  -35.2277 12.1198 -6.7582 0
M  V30 406 C  -35.9762 12.8352 -5.7241 0 CFG=2
M  V30 407 C  -35.9637 12.1135 -4.3694 0
M  V30 408 O  -35.8401 12.7974 -3.3597 0
M  V30 409 C  -37.4272 13.0711 -6.1840 0
M  V30 410 C  -37.6239 14.3319 -7.0424 0
M  V30 411 C  -39.0092 14.3238 -7.7241 0
M  V30 412 C  -37.3795 15.6215 -6.2251 0
M  V30 413 N  -36.0623 10.7723 -4.3607 0
M  V30 414 C  -35.9708 9.9515 -3.1515 0
M  V30 415 C  -34.5520 9.9982 -2.5693 0
M  V30 416 O  -34.3922 10.0886 -1.3616 0
M  V30 417 N  -33.5204 9.9977 -3.4237 0
M  V30 418 C  -32.1164 10.1586 -3.0473 0 CFG=2
M  V30 419 C  -31.8001 11.5717 -2.5320 0
M  V30 420 O  -31.1552 11.6879 -1.4953 0
M  V30 421 C  -31.2118 9.7764 -4.2368 0
M  V30 422 C  -31.0153 8.2746 -4.4448 0
M  V30 423 O  -29.9092 7.7594 -4.5532 0
M  V30 424 O  -32.1765 7.5675 -4.5207 0
M  V30 425 N  -32.2838 12.6121 -3.2302 0
M  V30 426 C  -32.1159 14.0199 -2.8584 0 CFG=2
M  V30 427 C  -32.8604 14.3896 -1.5616 0
M  V30 428 O  -32.3164 15.1466 -0.7575 0
M  V30 429 C  -32.5457 14.8989 -4.0536 0
M  V30 430 C  -32.3213 16.4193 -3.9163 0
M  V30 431 C  -30.8495 16.7653 -3.6200 0
M  V30 432 C  -32.8470 17.1536 -5.1690 0
M  V30 433 N  -34.0586 13.8083 -1.3637 0
M  V30 434 C  -34.8395 13.8792 -0.1275 0 CFG=2
M  V30 435 C  -34.1132 13.2059 1.0470 0
M  V30 436 O  -34.1639 13.7390 2.1540 0
M  V30 437 C  -36.2516 13.2869 -0.3478 0
M  V30 438 C  -37.1792 13.2410 0.8929 0
M  V30 439 C  -37.3924 14.6301 1.5327 0
M  V30 440 C  -38.5111 12.5388 0.5513 0
M  V30 441 N  -33.4383 12.0700 0.7791 0
M  V30 442 C  -32.6428 11.3324 1.7617 0 CFG=2
M  V30 443 C  -31.4616 12.1654 2.2529 0
M  V30 444 O  -31.2339 12.2112 3.4546 0
M  V30 445 C  -32.1586 9.9753 1.2096 0
M  V30 446 C  -31.6339 9.0522 2.2793 0
M  V30 447 N  -30.3200 9.0640 2.7172 0
M  V30 448 C  -32.2627 8.0782 3.0192 0
M  V30 449 C  -30.2157 8.1368 3.6717 0
M  V30 450 N  -31.3551 7.4956 3.9063 0
M  V30 451 N  -30.7713 12.8352 1.3196 0
M  V30 452 C  -29.6566 13.7292 1.5999 0 CFG=2
M  V30 453 C  -30.0465 14.9185 2.4976 0
M  V30 454 O  -29.3391 15.1651 3.4681 0
M  V30 455 C  -28.9953 14.2265 0.2796 0 CFG=2
M  V30 456 C  -28.2783 13.0737 -0.4575 0
M  V30 457 C  -28.0644 15.4502 0.4153 0
M  V30 458 C  -27.0132 12.5615 0.2327 0
M  V30 459 N  -31.1651 15.5993 2.1953 0
M  V30 460 C  -31.6071 16.7931 2.9248 0 CFG=2
M  V30 461 C  -32.3602 16.5000 4.2502 0
M  V30 462 O  -32.5983 17.4457 5.0006 0
M  V30 463 C  -32.4352 17.7313 1.9979 0
M  V30 464 C  -33.8500 17.2173 1.6973 0
M  V30 465 C  -32.4989 19.1922 2.4839 0
M  V30 466 N  -32.6647 15.2256 4.5676 0
M  V30 467 C  -33.1495 14.8307 5.8997 0 CFG=2
M  V30 468 C  -32.0393 14.1792 6.7448 0
M  V30 469 O  -31.9490 14.4814 7.9359 0
M  V30 470 C  -34.3887 13.8809 5.8495 0 CFG=2
M  V30 471 C  -35.0871 13.7358 7.2223 0
M  V30 472 C  -34.1076 12.4741 5.2849 0
M  V30 473 C  -35.5746 15.0703 7.8050 0
M  V30 474 N  -31.2138 13.3214 6.1176 0
M  V30 475 C  -30.1289 12.5807 6.7561 0 CFG=2
M  V30 476 C  -29.0336 13.5414 7.2327 0
M  V30 477 O  -28.7655 13.5909 8.4309 0
M  V30 478 C  -29.5497 11.4755 5.8329 0
M  V30 479 C  -28.4342 10.6022 6.4316 0
M  V30 480 O  -28.6241 10.0912 7.5576 0
M  V30 481 O  -27.4349 10.3872 5.7121 0 CHG=-1
M  V30 482 N  -28.4289 14.2904 6.2938 0
M  V30 483 C  -27.2626 15.1074 6.6114 0 CFG=2
M  V30 484 C  -27.5903 16.3214 7.5168 0
M  V30 485 O  -26.9270 16.4322 8.5421 0
M  V30 486 N  -28.5948 17.1792 7.2107 0
M  V30 487 C  -28.8666 18.3630 8.0450 0 CFG=2
M  V30 488 C  -29.2984 18.0697 9.4886 0
M  V30 489 O  -28.7066 18.6630 10.3845 0
M  V30 490 C  -29.9146 19.1674 7.2600 0
M  V30 491 C  -29.7065 18.7253 5.8280 0
M  V30 492 C  -29.4014 17.2437 5.9978 0
M  V30 493 N  -30.2850 17.1793 9.7029 0
M  V30 494 C  -30.8142 16.9116 11.0438 0 CFG=2
M  V30 495 C  -29.9784 15.8791 11.8283 0
M  V30 496 O  -29.6800 16.1395 12.9943 0
M  V30 497 C  -32.3256 16.5027 11.0563 0 CFG=2
M  V30 498 C  -33.2552 17.7014 10.7337 0
M  V30 499 C  -32.7835 15.9068 12.4092 0
M  V30 500 C  -33.1739 18.2428 9.2998 0
M  V30 501 N  -29.6629 14.7183 11.2220 0
M  V30 502 C  -29.1097 13.5724 11.9670 0 CFG=2
M  V30 503 C  -27.6301 13.7791 12.3429 0
M  V30 504 O  -27.2308 13.3389 13.4207 0
M  V30 505 C  -29.2929 12.2064 11.2446 0
M  V30 506 C  -30.7095 11.8017 10.7950 0
M  V30 507 O  -30.9016 10.6792 10.3354 0
M  V30 508 N  -31.7136 12.6709 10.9131 0
M  V30 509 N  -26.8568 14.4769 11.4890 0
M  V30 510 C  -25.4626 14.8492 11.7685 0 CFG=2
M  V30 511 C  -25.3710 16.0068 12.7847 0
M  V30 512 O  -24.3795 16.0928 13.5056 0
M  V30 513 C  -24.6924 15.2632 10.4827 0
M  V30 514 C  -23.2161 15.6653 10.6879 0
M  V30 515 C  -24.7663 14.1657 9.4078 0
M  V30 516 N  -26.4248 16.8349 12.8910 0
M  V30 517 C  -26.5424 17.8401 13.9494 0 CFG=2
M  V30 518 C  -26.6998 17.1931 15.3391 0
M  V30 519 O  -26.2298 17.7760 16.3118 0
M  V30 520 N  -27.3122 15.9942 15.3992 0
M  V30 521 C  -27.5026 15.2240 16.6279 0 CFG=2
M  V30 522 C  -26.2371 14.4533 17.0710 0
M  V30 523 O  -26.1259 14.1596 18.2604 0
M  V30 524 C  -28.7301 14.2963 16.4737 0
M  V30 525 C  -29.2569 13.7542 17.8176 0
M  V30 526 C  -30.4332 12.7742 17.6765 0
M  V30 527 C  -31.1133 12.4376 19.0208 0
M  V30 528 N  -30.2293 11.6937 19.9367 0 CHG=1
M  V30 529 N  -25.2883 14.1594 16.1568 0
M  V30 530 C  -23.9757 13.6036 16.5344 0 CFG=2
M  V30 531 C  -23.0793 14.6697 17.1963 0
M  V30 532 O  -22.2963 14.3272 18.0826 0
M  V30 533 C  -23.3254 12.8247 15.3502 0
M  V30 534 C  -22.3039 13.5379 14.4201 0
M  V30 535 C  -20.9112 13.7580 15.0512 0
M  V30 536 C  -22.1573 12.7642 13.0970 0
M  V30 537 N  -23.2331 15.9321 16.7605 0
M  V30 538 C  -22.5257 17.1013 17.2742 0 CFG=2
M  V30 539 C  -23.1384 17.6141 18.5902 0
M  V30 540 O  -22.3903 17.8511 19.5366 0
M  V30 541 C  -22.4790 18.1616 16.1470 0
M  V30 542 C  -21.7838 19.5031 16.4892 0
M  V30 543 C  -21.1757 20.1452 15.2297 0
M  V30 544 C  -22.7124 20.5059 17.2081 0
M  V30 545 N  -24.4721 17.7804 18.6189 0
M  V30 546 C  -25.2315 18.2603 19.7716 0 CFG=2
M  V30 547 C  -25.8890 17.0694 20.4767 0
M  V30 548 O  -26.7983 16.4578 19.9169 0
M  V30 549 C  -26.2897 19.2735 19.2997 0
M  V30 550 N  -25.4104 16.7682 21.6942 0
M  V30 551 C  -25.8361 15.6339 22.5226 0 CFG=2
M  V30 552 C  -27.3083 15.6969 22.9716 0
M  V30 553 O  -27.9404 14.6478 23.0985 0
M  V30 554 C  -24.8886 15.4810 23.7372 0
M  V30 555 C  -23.5183 14.8343 23.4174 0
M  V30 556 C  -22.5866 15.6275 22.4865 0
M  V30 557 O  -22.4612 16.8566 22.6859 0
M  V30 558 O  -22.0024 14.9805 21.5892 0 CHG=-1
M  V30 559 N  -27.8261 16.9196 23.1629 0
M  V30 560 C  -29.2354 17.2088 23.4087 0 CFG=2
M  V30 561 C  -29.9474 17.3413 22.0467 0
M  V30 562 O  -29.4326 18.0567 21.1897 0
M  V30 563 C  -29.3492 18.4993 24.2683 0
M  V30 564 C  -30.7416 18.9400 24.7560 0
M  V30 565 O  -31.7445 18.2905 24.4044 0
M  V30 566 O  -30.7887 19.9505 25.4896 0 CHG=-1
M  V30 567 N  -31.1216 16.6948 21.9008 0
M  V30 568 C  -32.0719 16.8782 20.7953 0 CFG=2
M  V30 569 C  -32.6773 18.3087 20.8064 0
M  V30 570 O  -33.4583 18.5999 21.7142 0
M  V30 571 C  -33.1923 15.8181 20.9228 0
M  V30 572 C  -34.3160 15.9596 19.9316 0
M  V30 573 C  -35.4945 16.5813 20.1702 0
M  V30 574 C  -34.3418 15.5952 18.5168 0
M  V30 575 N  -36.2355 16.6301 19.0104 0
M  V30 576 C  -35.5765 16.0350 17.9578 0
M  V30 577 C  -33.4419 14.9544 17.6360 0
M  V30 578 C  -35.9023 15.8392 16.6060 0
M  V30 579 C  -33.7681 14.7240 16.2833 0
M  V30 580 C  -35.0002 15.1662 15.7650 0
M  V30 581 N  -32.3250 19.1748 19.8268 0
M  V30 582 C  -32.7244 20.5923 19.8683 0 CFG=2
M  V30 583 C  -33.9719 20.9777 19.0378 0
M  V30 584 O  -34.3786 22.1360 19.1226 0
M  V30 585 C  -31.4673 21.2688 19.3059 0
M  V30 586 C  -31.0063 20.3250 18.2035 0
M  V30 587 C  -31.3641 18.9406 18.7412 0
M  V30 588 N  -34.5219 20.0638 18.2156 0
M  V30 589 C  -35.4809 20.4136 17.1548 0 CFG=2
M  V30 590 C  -36.9556 20.5315 17.5911 0
M  V30 591 O  -37.7287 21.1508 16.8601 0
M  V30 592 C  -35.3641 19.4106 15.9919 0
M  V30 593 C  -34.0246 19.3765 15.2839 0
M  V30 594 C  -33.6756 20.4003 14.3788 0
M  V30 595 C  -33.0666 18.3968 15.6164 0
M  V30 596 C  -32.4212 20.4006 13.7852 0
M  V30 597 C  -31.8128 18.4206 15.0206 0
M  V30 598 C  -31.4988 19.4129 14.1007 0
M  V30 599 N  -37.3272 19.9470 18.7418 0
M  V30 600 C  -38.7023 19.9465 19.2510 0
M  V30 601 C  -39.3875 18.5931 19.0017 0
M  V30 602 O  -38.8324 17.6980 18.3617 0
M  V30 603 N  -40.6033 18.4484 19.5559 0
M  V30 604 C  -41.3650 17.1969 19.6120 0 CFG=2
M  V30 605 C  -41.8715 16.6901 18.2525 0
M  V30 606 O  -41.7220 15.5006 17.9692 0
M  V30 607 C  -42.5381 17.3661 20.5896 0
M  V30 608 N  -42.4470 17.5964 17.4413 0
M  V30 609 C  -43.0107 17.3041 16.1188 0 CFG=2
M  V30 610 C  -41.9421 16.8218 15.1324 0
M  V30 611 O  -42.2192 15.9247 14.3415 0
M  V30 612 C  -43.7201 18.5379 15.5086 0
M  V30 613 C  -44.6258 19.3562 16.4587 0
M  V30 614 C  -43.9530 20.5481 17.1694 0
M  V30 615 O  -42.7032 20.5919 17.2463 0
M  V30 616 O  -44.7205 21.4114 17.6469 0 CHG=-1
M  V30 617 N  -40.7432 17.4211 15.2185 0
M  V30 618 C  -39.5954 17.1115 14.3758 0 CFG=2
M  V30 619 C  -39.0423 15.6959 14.5725 0
M  V30 620 O  -38.5483 15.1395 13.5961 0
M  V30 621 C  -38.4971 18.1729 14.5805 0
M  V30 622 C  -38.8945 19.5808 14.0992 0
M  V30 623 S  -39.3898 19.7219 12.3565 0
M  V30 624 C  -37.8989 19.1061 11.5280 0
M  V30 625 N  -39.1493 15.1175 15.7847 0
M  V30 626 C  -38.6953 13.7440 16.0186 0 CFG=2
M  V30 627 C  -39.6979 12.6889 15.5209 0
M  V30 628 O  -39.2729 11.5750 15.2270 0
M  V30 629 C  -38.3152 13.4966 17.4853 0
M  V30 630 S  -37.1892 12.0786 17.6014 0
M  V30 631 N  -40.9840 13.0527 15.3750 0
M  V30 632 C  -41.9437 12.2646 14.5991 0 CFG=2
M  V30 633 C  -41.6311 12.3416 13.0999 0
M  V30 634 O  -41.6712 11.3216 12.4175 0
M  V30 635 C  -43.3887 12.7350 14.8676 0
M  V30 636 C  -43.8416 12.4211 16.2935 0
M  V30 637 C  -45.3562 12.5108 16.5132 0
M  V30 638 C  -45.7292 11.9874 17.9082 0
M  V30 639 N  -47.1810 11.8265 18.0825 0 CHG=1
M  V30 640 N  -41.3168 13.5561 12.6286 0
M  V30 641 C  -41.1450 13.8760 11.2195 0 CFG=2
M  V30 642 C  -39.8648 13.2981 10.6024 0
M  V30 643 O  -39.9255 12.8239 9.4769 0
M  V30 644 C  -41.2239 15.4113 11.0424 0
M  V30 645 C  -42.1016 15.8730 9.8636 0
M  V30 646 C  -43.5558 15.3578 9.9749 0
M  V30 647 C  -42.0430 17.4090 9.7230 0
M  V30 648 N  -38.7332 13.3497 11.3158 0
M  V30 649 C  -37.4178 13.0347 10.7540 0 CFG=2
M  V30 650 C  -37.1768 11.5467 10.3962 0
M  V30 651 O  -36.7495 11.3004 9.2679 0
M  V30 652 C  -36.2884 13.6340 11.6371 0
M  V30 653 C  -34.8794 13.0521 11.4083 0
M  V30 654 C  -36.2794 15.1669 11.4828 0
M  V30 655 N  -37.5209 10.5832 11.2840 0
M  V30 656 C  -37.5537 9.1518 10.9333 0 CFG=2
M  V30 657 C  -38.6153 8.8220 9.8779 0
M  V30 658 O  -38.3380 8.0117 9.0040 0
M  V30 659 C  -37.8509 8.4329 12.2602 0
M  V30 660 C  -37.5120 9.4478 13.3300 0
M  V30 661 C  -37.8828 10.7637 12.6814 0
M  V30 662 N  -39.7838 9.4817 9.9511 0
M  V30 663 C  -40.8556 9.3849 8.9628 0 CFG=2
M  V30 664 C  -40.4264 9.7723 7.5387 0
M  V30 665 O  -40.6541 9.0035 6.6084 0
M  V30 666 C  -42.0825 10.1694 9.4605 0
M  V30 667 C  -43.1971 10.3953 8.4551 0
M  V30 668 C  -44.0245 9.3242 8.0714 0
M  V30 669 C  -43.3182 11.6286 7.7810 0
M  V30 670 C  -44.9757 9.4962 7.0795 0
M  V30 671 C  -44.2812 11.7842 6.7934 0
M  V30 672 C  -45.1079 10.7240 6.4467 0
M  V30 673 N  -39.7799 10.9389 7.4001 0
M  V30 674 C  -39.2300 11.4087 6.1350 0 CFG=2
M  V30 675 C  -38.0694 10.5192 5.6524 0
M  V30 676 O  -38.0485 10.2230 4.4653 0
M  V30 677 C  -38.8085 12.9101 6.1841 0 CFG=2
M  V30 678 C  -40.0207 13.8540 6.3857 0
M  V30 679 C  -37.9710 13.3974 4.9791 0
M  V30 680 C  -41.0688 13.8523 5.2626 0
M  V30 681 N  -37.1833 10.0544 6.5544 0
M  V30 682 C  -36.0603 9.1737 6.2142 0 CFG=2
M  V30 683 C  -36.5044 7.7627 5.7725 0
M  V30 684 O  -35.9959 7.2898 4.7605 0
M  V30 685 C  -35.0180 9.1799 7.3563 0
M  V30 686 C  -33.6575 8.5127 7.0282 0
M  V30 687 C  -33.5704 7.0163 7.3471 0
M  V30 688 O  -33.2595 6.2068 6.4776 0
M  V30 689 N  -33.8197 6.6420 8.6028 0
M  V30 690 N  -37.4689 7.1363 6.4741 0
M  V30 691 C  -38.0508 5.8397 6.0914 0 CFG=2
M  V30 692 C  -38.8583 5.8945 4.7947 0
M  V30 693 O  -38.7494 4.9678 3.9962 0
M  V30 694 C  -38.9047 5.2238 7.2242 0
M  V30 695 C  -38.1198 4.2728 8.1301 0
M  V30 696 C  -37.0283 4.9912 8.9373 0
M  V30 697 C  -36.2914 4.1209 9.9482 0
M  V30 698 N  -35.6940 2.9301 9.3318 0 CHG=1
M  V30 699 N  -39.6255 6.9765 4.5885 0
M  V30 700 C  -40.3359 7.2153 3.3350 0 CFG=2
M  V30 701 C  -39.3706 7.4810 2.1729 0
M  V30 702 O  -39.6343 7.0501 1.0576 0
M  V30 703 C  -41.3336 8.3682 3.5098 0
M  V30 704 N  -38.2426 8.1376 2.4610 0
M  V30 705 C  -37.2146 8.4680 1.4904 0 CFG=2
M  V30 706 C  -36.4528 7.2401 0.9514 0
M  V30 707 O  -36.3179 7.1295 -0.2679 0
M  V30 708 C  -36.3123 9.5347 2.1097 0
M  V30 709 O  -35.3760 9.9562 1.1775 0
M  V30 710 N  -36.0316 6.3123 1.8362 0
M  V30 711 C  -35.4444 5.0253 1.4256 0 CFG=2
M  V30 712 C  -36.4907 4.1314 0.7334 0
M  V30 713 O  -36.1427 3.4326 -0.2170 0
M  V30 714 C  -34.8531 4.1928 2.6017 0
M  V30 715 C  -34.1563 2.8915 2.1345 0
M  V30 716 C  -33.8439 4.9904 3.4318 0
M  V30 717 N  -37.7526 4.2196 1.1950 0
M  V30 718 C  -38.9209 3.5623 0.6170 0
M  V30 719 C  -39.1122 3.9590 -0.8519 0
M  V30 720 O  -39.3980 3.0909 -1.6716 0
M  V30 721 N  -38.9346 5.2517 -1.1894 0
M  V30 722 C  -39.0273 5.7608 -2.5598 0 CFG=2
M  V30 723 C  -37.9000 5.2041 -3.4446 0
M  V30 724 O  -38.2064 4.7336 -4.5339 0
M  V30 725 C  -39.0531 7.3214 -2.6428 0 CFG=2
M  V30 726 C  -40.3644 7.8868 -2.0502 0
M  V30 727 C  -38.8614 7.9025 -4.0665 0
M  V30 728 C  -40.2512 9.3369 -1.5595 0
M  V30 729 N  -36.6471 5.2198 -2.9539 0
M  V30 730 C  -35.4657 4.7125 -3.6637 0 CFG=2
M  V30 731 C  -35.5803 3.2265 -4.0723 0
M  V30 732 O  -35.2520 2.8970 -5.2131 0
M  V30 733 C  -34.1790 4.8876 -2.8089 0 CFG=2
M  V30 734 O  -33.9929 6.2622 -2.5373 0
M  V30 735 C  -32.8775 4.3621 -3.4487 0
M  V30 736 N  -36.0768 2.3753 -3.1563 0
M  V30 737 C  -36.2508 0.9407 -3.3923 0 CFG=2
M  V30 738 C  -37.4712 0.5973 -4.2655 0
M  V30 739 O  -37.3671 -0.3099 -5.0897 0
M  V30 740 C  -36.3423 0.1280 -2.0740 0
M  V30 741 C  -35.0411 0.2142 -1.2858 0
M  V30 742 C  -37.5531 0.3993 -1.1667 0
M  V30 743 N  -38.5847 1.3314 -4.1028 0
M  V30 744 C  -39.8053 1.1300 -4.8865 0 CFG=2
M  V30 745 C  -39.7006 1.7206 -6.3060 0
M  V30 746 O  -40.3442 1.1884 -7.2099 0
M  V30 747 C  -41.0160 1.6989 -4.1198 0
M  V30 748 C  -41.4392 0.8962 -2.8699 0
M  V30 749 C  -42.4868 1.6782 -2.0498 0
M  V30 750 C  -41.9139 -0.5309 -3.2188 0
M  V30 751 N  -38.8581 2.7529 -6.4967 0
M  V30 752 C  -38.4886 3.2913 -7.8071 0 CFG=2
M  V30 753 C  -37.6416 2.3083 -8.6320 0
M  V30 754 O  -37.8311 2.2518 -9.8449 0
M  V30 755 C  -37.7667 4.6422 -7.6603 0
M  V30 756 O  -38.6761 5.6752 -7.3376 0
M  V30 757 N  -36.7704 1.5275 -7.9640 0
M  V30 758 C  -36.0167 0.4205 -8.5613 0 CFG=2
M  V30 759 C  -36.9200 -0.7397 -9.0133 0
M  V30 760 O  -36.7131 -1.2536 -10.1136 0
M  V30 761 C  -34.9365 -0.0826 -7.5715 0
M  V30 762 C  -33.5635 0.5871 -7.7551 0
M  V30 763 C  -32.6166 0.2401 -6.5933 0
M  V30 764 C  -32.9361 0.2335 -9.1177 0
M  V30 765 N  -37.9069 -1.1096 -8.1753 0
M  V30 766 C  -38.8959 -2.1547 -8.4570 0 CFG=2
M  V30 767 C  -39.7408 -1.8175 -9.6874 0
M  V30 768 O  -39.7283 -2.5886 -10.6440 0
M  V30 769 C  -39.8353 -2.4251 -7.2697 0
M  V30 770 S  -38.9211 -3.2123 -5.9328 0
M  V30 771 N  -40.4185 -0.6571 -9.6459 0
M  V30 772 C  -41.2652 -0.1419 -10.7210 0 CFG=2
M  V30 773 C  -40.5234 0.0531 -12.0521 0
M  V30 774 O  -41.1368 -0.1503 -13.0979 0
M  V30 775 C  -41.9094 1.1748 -10.2670 0
M  V30 776 N  -39.2232 0.4049 -11.9904 0
M  V30 777 C  -38.3455 0.5302 -13.1531 0 CFG=2
M  V30 778 C  -38.1573 -0.8203 -13.8553 0
M  V30 779 O  -38.5349 -0.9183 -15.0170 0
M  V30 780 C  -37.0140 1.2145 -12.7601 0
M  V30 781 C  -35.9859 1.4099 -13.9002 0
M  V30 782 C  -36.4934 2.3972 -14.9752 0
M  V30 783 C  -34.6200 1.8333 -13.3282 0
M  V30 784 N  -37.6472 -1.8400 -13.1404 0
M  V30 785 C  -37.4335 -3.1917 -13.6771 0 CFG=2
M  V30 786 C  -38.7120 -3.8939 -14.1724 0
M  V30 787 O  -38.6321 -4.6579 -15.1330 0
M  V30 788 C  -36.6842 -4.0523 -12.6453 0
M  V30 789 O  -37.5350 -4.5055 -11.6079 0
M  V30 790 N  -39.8555 -3.6103 -13.5243 0
M  V30 791 C  -41.1613 -4.1383 -13.9053 0 CFG=2
M  V30 792 C  -41.6771 -3.4658 -15.1933 0
M  V30 793 O  -42.1370 -4.1923 -16.0682 0
M  V30 794 C  -42.2109 -4.0120 -12.7626 0 CFG=2
M  V30 795 C  -41.7948 -4.8429 -11.5268 0
M  V30 796 C  -43.6382 -4.4349 -13.1707 0
M  V30 797 C  -42.4728 -4.4060 -10.2194 0
M  V30 798 N  -41.5330 -2.1314 -15.3313 0
M  V30 799 C  -41.8111 -1.4023 -16.5813 0 CFG=2
M  V30 800 C  -40.8734 -1.7679 -17.7338 0
M  V30 801 O  -41.3340 -1.7750 -18.8720 0
M  V30 802 C  -41.8579 0.1423 -16.4380 0
M  V30 803 C  -43.1129 0.7204 -15.7717 0
M  V30 804 O  -44.0529 -0.0495 -15.4768 0
M  V30 805 O  -43.1508 1.9616 -15.6290 0 CHG=-1
M  V30 806 N  -39.6071 -2.0884 -17.4310 0
M  V30 807 C  -38.6500 -2.6070 -18.4013 0 CFG=2
M  V30 808 C  -39.0050 -4.0305 -18.8638 0
M  V30 809 O  -38.8837 -4.3027 -20.0567 0
M  V30 810 C  -37.2169 -2.5050 -17.8318 0
M  V30 811 C  -36.6324 -1.0832 -17.7227 0
M  V30 812 C  -36.8867 -0.2272 -18.9708 0
M  V30 813 N  -36.0742 0.9950 -18.9986 0
M  V30 814 C  -36.1341 1.9472 -19.9461 0
M  V30 815 N  -35.2863 2.9755 -19.8805 0
M  V30 816 N  -37.0133 1.8936 -20.9577 0 CHG=1
M  V30 817 N  -39.4931 -4.8949 -17.9572 0
M  V30 818 C  -39.9987 -6.2182 -18.3255 0 CFG=2
M  V30 819 C  -41.3336 -6.1600 -19.0973 0
M  V30 820 O  -41.5053 -6.9455 -20.0298 0
M  V30 821 C  -40.0649 -7.1475 -17.0969 0
M  V30 822 C  -40.5867 -8.5369 -17.4283 0
M  V30 823 C  -39.8413 -9.3786 -18.2806 0
M  V30 824 C  -41.8470 -8.9604 -16.9588 0
M  V30 825 C  -40.3556 -10.6274 -18.6744 0
M  V30 826 C  -42.3595 -10.2136 -17.3469 0
M  V30 827 C  -41.6183 -11.0437 -18.2111 0
M  V30 828 O  -42.1228 -12.2486 -18.6042 0
M  V30 829 N  -42.2317 -5.2242 -18.7309 0
M  V30 830 C  -43.4655 -4.9509 -19.4717 0 CFG=2
M  V30 831 C  -43.1811 -4.4405 -20.8902 0
M  V30 832 O  -43.7988 -4.9292 -21.8296 0
M  V30 833 C  -44.3824 -3.9556 -18.7377 0
M  V30 834 C  -45.0913 -4.5428 -17.5097 0
M  V30 835 C  -46.1527 -3.5803 -16.9641 0
M  V30 836 N  -46.6977 -4.0276 -15.6705 0
M  V30 837 C  -46.6900 -3.3609 -14.4995 0
M  V30 838 N  -47.2648 -3.9274 -13.4321 0
M  V30 839 N  -46.1325 -2.1499 -14.3550 0 CHG=1
M  V30 840 N  -42.2493 -3.4890 -21.0167 0
M  V30 841 C  -41.9240 -2.8329 -22.2703 0 CFG=2
M  V30 842 C  -40.4409 -2.4605 -22.2701 0
M  V30 843 O  -40.0405 -1.5444 -21.5521 0
M  V30 844 C  -42.8374 -1.6060 -22.4439 0
M  V30 845 N  -39.6533 -3.1894 -23.0757 0
M  V30 846 C  -38.2033 -3.0245 -23.2016 0 CFG=2
M  V30 847 C  -37.8096 -1.6653 -23.8229 0
M  V30 848 O  -36.8077 -1.0794 -23.4123 0
M  V30 849 C  -37.5928 -4.1572 -24.0791 0
M  V30 850 C  -36.0600 -4.0828 -24.2313 0
M  V30 851 C  -38.0017 -5.5602 -23.5851 0
M  V30 852 N  -38.6196 -1.1934 -24.7838 0
M  V30 853 C  -38.3848 0.0144 -25.5705 0 CFG=2
M  V30 854 C  -39.7134 0.5889 -26.0888 0
M  V30 855 O  -40.7835 0.1352 -25.6856 0
M  V30 856 C  -37.4323 -0.3424 -26.7221 0
M  V30 857 N  -39.6284 1.5873 -26.9824 0
M  V30 858 C  -40.7902 2.2173 -27.6196 0 CFG=2
M  V30 859 C  -41.5042 1.3035 -28.6380 0
M  V30 860 O  -42.7308 1.3440 -28.7220 0
M  V30 861 C  -40.3491 3.5360 -28.2813 0
M  V30 862 O  -40.1301 4.5287 -27.2991 0
M  V30 863 N  -40.7262 0.4876 -29.3701 0
M  V30 864 C  -41.2030 -0.4905 -30.3568 0 CFG=2
M  V30 865 C  -41.7535 -1.7943 -29.7484 0
M  V30 866 O  -42.3854 -2.5629 -30.4741 0
M  V30 867 C  -40.0986 -0.7699 -31.4045 0
M  V30 868 C  -38.6744 -0.7809 -30.9226 0
M  V30 869 C  -37.8432 0.2853 -30.9717 0
M  V30 870 C  -37.9196 -1.8418 -30.2557 0
M  V30 871 N  -36.6302 -0.0405 -30.4069 0
M  V30 872 C  -36.6180 -1.3386 -29.9452 0
M  V30 873 C  -38.1926 -3.1769 -29.8763 0
M  V30 874 C  -35.6439 -2.1122 -29.2927 0
M  V30 875 C  -37.2174 -3.9634 -29.2303 0
M  V30 876 C  -35.9479 -3.4348 -28.9280 0
M  V30 877 N  -41.5276 -2.0164 -28.4429 0
M  V30 878 C  -42.0426 -3.1622 -27.6948 0 CFG=2
M  V30 879 C  -43.5720 -3.1097 -27.4987 0
M  V30 880 O  -44.1875 -2.0493 -27.6228 0
M  V30 881 C  -41.2897 -3.2496 -26.3518 0
M  V30 882 O  -41.8248 -2.3864 -25.3775 0
M  V30 883 N  -44.1328 -4.2722 -27.1468 0
M  V30 884 C  -45.5363 -4.4561 -26.7896 0 CFG=2
M  V30 885 C  -45.6100 -4.6611 -25.2702 0
M  V30 886 O  -44.8472 -5.4793 -24.7513 0
M  V30 887 C  -46.0574 -5.7064 -27.5299 0
M  V30 888 C  -45.9669 -5.6062 -29.0699 0
M  V30 889 C  -46.0307 -6.9665 -29.7884 0
M  V30 890 N  -47.3645 -7.5924 -29.7119 0
M  V30 891 C  -48.1277 -8.0436 -30.7265 0
M  V30 892 N  -47.7372 -7.9779 -32.0091 0
M  V30 893 N  -49.3221 -8.5784 -30.4430 0 CHG=1
M  V30 894 N  -46.5337 -3.9554 -24.5871 0
M  V30 895 C  -46.7854 -4.1509 -23.1518 0 CFG=2
M  V30 896 C  -47.3230 -5.5676 -22.8627 0
M  V30 897 O  -48.2354 -6.0147 -23.5587 0
M  V30 898 C  -47.7094 -3.0617 -22.5211 0 CFG=2
M  V30 899 C  -46.9300 -1.7298 -22.3931 0
M  V30 900 C  -48.3042 -3.4474 -21.1427 0
M  V30 901 C  -47.7843 -0.5255 -21.9640 0
M  V30 902 N  -46.7214 -6.2371 -21.8621 0
M  V30 903 C  -47.0076 -7.6232 -21.4822 0 CFG=2
M  V30 904 C  -48.4664 -7.8696 -21.0775 0
M  V30 905 O  -49.1623 -8.5969 -21.7858 0
M  V30 906 C  -46.0418 -8.0972 -20.3698 0
M  V30 907 C  -44.5705 -8.2074 -20.7925 0
M  V30 908 C  -44.2864 -9.2348 -21.8869 0
M  V30 909 C  -42.8120 -9.2058 -22.2944 0
M  V30 910 N  -42.5872 -10.0228 -23.4936 0 CHG=1
M  V30 911 N  -48.8880 -7.2802 -19.9492 0
M  V30 912 C  -50.2204 -7.4874 -19.3981 0
M  V30 913 C  -50.7717 -6.1489 -18.9169 0
M  V30 914 O  -50.0427 -5.3478 -18.3290 0
M  V30 915 N  -52.0887 -5.9721 -19.1282 0
M  V30 916 C  -52.9522 -4.8939 -18.6330 0 CFG=2
M  V30 917 C  -52.3909 -3.4990 -18.9906 0
M  V30 918 O  -51.9594 -2.7538 -18.1143 0
M  V30 919 N  -52.3548 -3.1946 -20.2996 0
M  V30 920 C  -51.8312 -1.9325 -20.8219 0
M  V30 921 C  -52.7475 -0.7791 -20.4022 0
M  V30 922 O  -53.9172 -0.7494 -20.7826 0
M  V30 923 N  -52.1898 0.1533 -19.6159 0
M  V30 924 C  -52.8672 1.3278 -19.0721 0 CFG=2
M  V30 925 C  -52.0579 2.5657 -19.5150 0
M  V30 926 O  -50.8475 2.5849 -19.2841 0
M  V30 927 C  -52.8959 1.2531 -17.5145 0
M  V30 928 C  -53.1895 2.5880 -16.7923 0
M  V30 929 C  -53.9100 0.1932 -17.0479 0
M  V30 930 N  -52.7093 3.5565 -20.1697 0
M  V30 931 C  -52.0126 4.7510 -20.6819 0 CFG=2
M  V30 932 C  -51.4871 5.6639 -19.5585 0
M  V30 933 O  -52.1956 5.8919 -18.5771 0
M  V30 934 C  -53.0779 5.4445 -21.5463 0
M  V30 935 C  -54.4047 5.0396 -20.9276 0
M  V30 936 C  -54.1454 3.6133 -20.4592 0
M  V30 937 N  -50.2459 6.1530 -19.7384 0
M  V30 938 C  -49.5137 7.0453 -18.8261 0 CFG=2
M  V30 939 C  -49.2655 6.3892 -17.4547 0
M  V30 940 O  -49.5064 7.0062 -16.4155 0
M  V30 941 C  -50.2145 8.4202 -18.7014 0
M  V30 942 C  -50.4523 9.1241 -20.0467 0
M  V30 943 C  -51.1818 10.4615 -19.8707 0
M  V30 944 C  -51.6017 11.0787 -21.2127 0
M  V30 945 N  -52.3411 12.3387 -21.0229 0 CHG=1
M  V30 946 N  -48.8101 5.1257 -17.4871 0
M  V30 947 C  -48.6341 4.2827 -16.3048 0 CFG=2
M  V30 948 C  -47.5078 4.7780 -15.3826 0
M  V30 949 O  -47.5914 4.5675 -14.1777 0
M  V30 950 C  -48.3724 2.8375 -16.7674 0
M  V30 951 C  -48.8367 1.7256 -15.8725 0
M  V30 952 C  -49.2119 1.8145 -14.5740 0
M  V30 953 C  -49.0015 0.3233 -16.2313 0
M  V30 954 N  -49.5856 0.5748 -14.1070 0
M  V30 955 C  -49.4907 -0.3834 -15.0910 0
M  V30 956 C  -48.8088 -0.4211 -17.4181 0
M  V30 957 C  -49.7786 -1.7567 -15.1245 0
M  V30 958 C  -49.0991 -1.7975 -17.4645 0
M  V30 959 C  -49.5815 -2.4645 -16.3216 0
M  V30 960 N  -46.4992 5.4585 -15.9485 0
M  V30 961 C  -45.3874 6.0499 -15.2088 0 CFG=2
M  V30 962 C  -45.8277 7.1480 -14.2125 0
M  V30 963 O  -45.2491 7.2226 -13.1310 0
M  V30 964 C  -44.3375 6.6505 -16.1741 0 CFG=2
M  V30 965 O  -44.7950 7.8179 -16.8391 0
M  V30 966 C  -43.7966 5.6620 -17.2186 0
M  V30 967 N  -46.8681 7.9297 -14.5597 0
M  V30 968 C  -47.4797 8.9232 -13.6761 0 CFG=2
M  V30 969 C  -48.2651 8.2712 -12.5272 0
M  V30 970 O  -48.1490 8.7279 -11.3910 0
M  V30 971 C  -48.3804 9.8563 -14.4991 0
M  V30 972 N  -49.0097 7.1954 -12.8401 0
M  V30 973 C  -49.7564 6.3851 -11.8757 0 CFG=2
M  V30 974 C  -48.8244 5.6735 -10.8733 0
M  V30 975 O  -49.1055 5.6994 -9.6780 0
M  V30 976 C  -50.6507 5.3278 -12.5928 0
M  V30 977 C  -51.3285 4.2991 -11.6603 0
M  V30 978 C  -51.7167 6.0045 -13.4734 0
M  V30 979 N  -47.7226 5.0862 -11.3687 0
M  V30 980 C  -46.7422 4.3665 -10.5600 0 CFG=2
M  V30 981 C  -45.9187 5.2567 -9.6252 0
M  V30 982 O  -45.6598 4.8170 -8.5095 0
M  V30 983 C  -45.8473 3.4898 -11.4485 0
M  V30 984 C  -46.6022 2.2469 -11.9416 0
M  V30 985 C  -45.7223 1.3737 -12.8188 0
M  V30 986 O  -44.9500 0.5248 -12.3768 0
M  V30 987 O  -45.8861 1.6545 -14.1406 0
M  V30 988 N  -45.5725 6.4883 -10.0418 0
M  V30 989 C  -44.9178 7.4712 -9.1676 0 CFG=2
M  V30 990 C  -45.8096 7.8850 -7.9809 0
M  V30 991 O  -45.3000 7.9989 -6.8685 0
M  V30 992 C  -44.4317 8.7319 -9.9436 0 CFG=2
M  V30 993 C  -43.2437 8.3490 -10.8477 0
M  V30 994 C  -44.0326 9.9449 -9.0669 0
M  V30 995 C  -42.9234 9.3811 -11.9354 0
M  V30 996 N  -47.1241 8.0362 -8.2179 0
M  V30 997 C  -48.1092 8.2998 -7.1681 0 CFG=2
M  V30 998 C  -48.2115 7.1401 -6.1527 0
M  V30 999 O  -48.1816 7.4104 -4.9532 0
M  V30 1000 C  -49.5096 8.6400 -7.7599 0
M  V30 1001 C  -50.6753 8.6286 -6.7473 0
M  V30 1002 C  -49.4777 10.0026 -8.4750 0
M  V30 1003 N  -48.2769 5.8844 -6.6356 0
M  V30 1004 C  -48.3463 4.6940 -5.7803 0 CFG=2
M  V30 1005 C  -47.0591 4.4328 -4.9814 0
M  V30 1006 O  -47.1665 4.0390 -3.8215 0
M  V30 1007 C  -48.7266 3.4398 -6.5978 0
M  V30 1008 C  -50.1339 3.4610 -7.2357 0
M  V30 1009 C  -50.4158 2.1344 -7.9711 0
M  V30 1010 C  -51.2549 3.8159 -6.2388 0
M  V30 1011 N  -45.8837 4.6796 -5.5893 0
M  V30 1012 C  -44.5680 4.5682 -4.9506 0 CFG=2
M  V30 1013 C  -44.4638 5.4537 -3.6981 0
M  V30 1014 O  -44.2127 4.9235 -2.6208 0
M  V30 1015 C  -43.4032 4.8812 -5.9469 0 CFG=2
M  V30 1016 C  -43.2103 3.7048 -6.9315 0
M  V30 1017 C  -42.0388 5.2538 -5.3132 0
M  V30 1018 C  -42.4843 4.0867 -8.2299 0
M  V30 1019 N  -44.7256 6.7601 -3.8589 0
M  V30 1020 C  -44.6363 7.7595 -2.7953 0 CFG=2
M  V30 1021 C  -45.6875 7.5994 -1.6847 0
M  V30 1022 O  -45.3581 7.8666 -0.5299 0
M  V30 1023 C  -44.6709 9.1722 -3.4029 0
M  V30 1024 C  -43.4361 9.5948 -4.1458 0
M  V30 1025 C  -42.8605 8.9475 -5.1856 0
M  V30 1026 C  -42.6073 10.7736 -3.9129 0
M  V30 1027 N  -41.7515 9.6378 -5.6127 0
M  V30 1028 C  -41.5433 10.7721 -4.8640 0
M  V30 1029 C  -42.6395 11.8460 -2.9903 0
M  V30 1030 C  -40.5674 11.7782 -4.9031 0
M  V30 1031 C  -41.6611 12.8604 -3.0150 0
M  V30 1032 C  -40.6268 12.8294 -3.9702 0
M  V30 1033 N  -46.9050 7.1452 -2.0310 0
M  V30 1034 C  -47.9715 6.8655 -1.0654 0 CFG=2
M  V30 1035 C  -47.6494 5.6519 -0.1757 0
M  V30 1036 O  -47.7778 5.7700 1.0419 0
M  V30 1037 C  -49.3531 6.6748 -1.7584 0
M  V30 1038 C  -50.4451 5.9866 -0.9066 0
M  V30 1039 C  -49.8903 8.0288 -2.2537 0
M  V30 1040 N  -47.2090 4.5332 -0.7825 0
M  V30 1041 C  -46.7988 3.3298 -0.0529 0 CFG=2
M  V30 1042 C  -45.5869 3.6067 0.8500 0
M  V30 1043 O  -45.6358 3.2381 2.0167 0
M  V30 1044 C  -46.4989 2.1257 -0.9925 0
M  V30 1045 C  -45.7959 0.9246 -0.3158 0
M  V30 1046 C  -47.7961 1.6286 -1.6551 0
M  V30 1047 N  -44.5769 4.3152 0.3231 0
M  V30 1048 C  -43.3902 4.7716 1.0458 0 CFG=2
M  V30 1049 C  -43.7052 5.5656 2.3226 0
M  V30 1050 O  -43.1427 5.2603 3.3739 0
M  V30 1051 C  -42.5627 5.6398 0.1003 0
M  V30 1052 O  -41.9861 4.8349 -0.8933 0
M  V30 1053 N  -44.6438 6.5213 2.2079 0
M  V30 1054 C  -45.2205 7.2659 3.3244 0 CFG=2
M  V30 1055 C  -45.8976 6.3415 4.3558 0
M  V30 1056 O  -45.5732 6.4580 5.5334 0
M  V30 1057 C  -46.1934 8.3758 2.8171 0
M  V30 1058 C  -47.3041 8.8246 3.7911 0
M  V30 1059 C  -45.3977 9.6009 2.3322 0
M  V30 1060 N  -46.7556 5.4103 3.8992 0
M  V30 1061 C  -47.4527 4.4230 4.7350 0 CFG=2
M  V30 1062 C  -46.5092 3.4979 5.5359 0
M  V30 1063 O  -46.7795 3.2684 6.7133 0
M  V30 1064 C  -48.4619 3.5734 3.8994 0
M  V30 1065 C  -48.9606 2.2659 4.5549 0
M  V30 1066 C  -49.6777 4.4221 3.4901 0
M  V30 1067 N  -45.4107 3.0262 4.9167 0
M  V30 1068 C  -44.3823 2.2043 5.5703 0 CFG=2
M  V30 1069 C  -43.5934 2.9451 6.6638 0
M  V30 1070 O  -43.0300 2.2902 7.5416 0
M  V30 1071 C  -43.3781 1.6635 4.5295 0
M  V30 1072 C  -43.9302 0.7666 3.3998 0
M  V30 1073 C  -42.7827 0.0228 2.7079 0
M  V30 1074 C  -45.0882 -0.1775 3.7859 0
M  V30 1075 N  -43.5699 4.2827 6.5833 0
M  V30 1076 C  -42.8638 5.1584 7.5033 0 CFG=2
M  V30 1077 C  -43.7555 5.7198 8.6212 0
M  V30 1078 O  -43.2001 6.1950 9.6104 0
M  V30 1079 C  -42.2619 6.2939 6.6810 0
M  V30 1080 N  -45.0961 5.6689 8.4711 0
M  V30 1081 C  -46.0653 6.1137 9.4851 0 CFG=2
M  V30 1082 C  -45.9401 5.4308 10.8735 0
M  V30 1083 O  -46.0798 6.1472 11.8646 0
M  V30 1084 C  -47.5483 6.0648 8.9833 0
M  V30 1085 C  -48.6446 6.0509 10.0721 0
M  V30 1086 C  -47.8560 7.2209 8.0180 0
M  V30 1087 N  -45.6000 4.1193 10.9513 0
M  V30 1088 C  -45.2166 3.4681 12.2176 0 CFG=2
M  V30 1089 C  -44.0463 4.1176 12.9787 0
M  V30 1090 O  -44.1096 4.1803 14.2048 0
M  V30 1091 C  -44.9013 2.0300 11.8013 0
M  V30 1092 C  -45.7970 1.7789 10.6065 0
M  V30 1093 C  -45.7531 3.1197 9.8910 0
M  V30 1094 N  -43.0401 4.6571 12.2661 0
M  V30 1095 C  -42.0125 5.5006 12.8819 0 CFG=2
M  V30 1096 C  -42.6346 6.7883 13.4431 0
M  V30 1097 O  -42.5103 7.0284 14.6405 0
M  V30 1098 C  -40.8696 5.8377 11.8999 0
M  V30 1099 C  -40.2462 4.6450 11.1512 0
M  V30 1100 C  -39.4740 3.6188 11.9989 0
M  V30 1101 O  -39.2190 2.5301 11.4443 0
M  V30 1102 O  -39.1147 3.9105 13.1592 0 CHG=-1
M  V30 1103 N  -43.3387 7.5482 12.5848 0
M  V30 1104 C  -43.9680 8.8337 12.9028 0 CFG=2
M  V30 1105 C  -44.8511 8.8257 14.1559 0
M  V30 1106 O  -44.6655 9.6738 15.0231 0
M  V30 1107 C  -44.7717 9.3389 11.6911 0
M  V30 1108 N  -45.7693 7.8522 14.2371 0
M  V30 1109 C  -46.6827 7.6694 15.3622 0 CFG=2
M  V30 1110 C  -45.9598 7.3088 16.6734 0
M  V30 1111 O  -46.3390 7.8304 17.7228 0
M  V30 1112 C  -47.7764 6.6062 15.0200 0 CFG=2
M  V30 1113 C  -48.7941 7.2252 14.0317 0
M  V30 1114 C  -48.5087 5.9763 16.2312 0
M  V30 1115 C  -49.8115 6.2309 13.4553 0
M  V30 1116 N  -44.9478 6.4303 16.5832 0
M  V30 1117 C  -44.3039 5.8399 17.7491 0
M  V30 1118 C  -43.1818 6.7005 18.3462 0
M  V30 1119 O  -42.8659 6.5257 19.5227 0
M  V30 1120 N  -42.5624 7.5919 17.5560 0
M  V30 1121 C  -41.4469 8.4341 17.9844 0 CFG=2
M  V30 1122 C  -41.8926 9.5800 18.9073 0
M  V30 1123 O  -42.5451 10.5114 18.4495 0
M  V30 1124 C  -40.6738 8.9611 16.7548 0
M  V30 1125 C  -39.3864 8.2207 16.4314 0
M  V30 1126 C  -38.2318 8.4826 17.1947 0
M  V30 1127 C  -39.3259 7.2136 15.4446 0
M  V30 1128 C  -37.0390 7.8373 16.9018 0
M  V30 1129 C  -38.1260 6.5695 15.1779 0
M  V30 1130 C  -36.9840 6.8842 15.8964 0
M  V30 1131 N  -41.4850 9.5096 20.1788 0
M  V30 1132 C  -41.6178 10.5835 21.1632 0 CFG=2
M  V30 1133 C  -40.2829 10.7373 21.8966 0
M  V30 1134 O  -39.5032 9.7884 21.9898 0
M  V30 1135 C  -42.7834 10.3413 22.1599 0
M  V30 1136 C  -44.1995 10.6496 21.6458 0
M  V30 1137 O  -44.3543 11.6447 20.9042 0
M  V30 1138 O  -45.1420 9.9898 22.1360 0 CHG=-1
M  V30 1139 N  -40.0445 11.9563 22.3978 0
M  V30 1140 C  -38.8259 12.3205 23.1154 0 CFG=2
M  V30 1141 C  -38.9013 11.8318 24.5808 0
M  V30 1142 O  -39.9943 11.7614 25.1477 0
M  V30 1143 C  -38.5755 13.8628 23.0484 0 CFG=2
M  V30 1144 C  -39.4257 14.7444 23.9988 0
M  V30 1145 C  -38.6888 14.3911 21.6011 0
M  V30 1146 C  -38.7078 15.1216 25.3045 0
M  V30 1147 N  -37.7378 11.4979 25.1614 0
M  V30 1148 C  -37.5984 11.0891 26.5628 0 CFG=2
M  V30 1149 C  -36.4717 11.9228 27.1923 0
M  V30 1150 O  -35.4097 12.0675 26.5864 0
M  V30 1151 C  -37.2557 9.5707 26.7195 0 CFG=2
M  V30 1152 C  -38.3809 8.6808 26.1393 0
M  V30 1153 C  -36.9511 9.1527 28.1805 0
M  V30 1154 C  -38.0609 7.1777 26.1143 0
M  V30 1155 N  -36.7204 12.4381 28.4062 0
M  V30 1156 C  -35.7389 13.2058 29.1695 0 CFG=2
M  V30 1157 C  -34.9322 12.2741 30.0904 0
M  V30 1158 O  -35.5291 11.5191 30.8588 0
M  V30 1159 C  -36.4120 14.3044 30.0309 0 CFG=2
M  V30 1160 O  -37.1725 15.1449 29.1834 0
M  V30 1161 C  -35.4256 15.1997 30.8061 0
M  V30 1162 N  -33.5970 12.3597 29.9898 0
M  V30 1163 C  -32.6458 11.6402 30.8363 0 CFG=2
M  V30 1164 C  -31.7462 12.6580 31.5489 0
M  V30 1165 O  -31.4693 13.7250 31.0005 0
M  V30 1166 N  -31.2842 12.2944 32.7534 0
M  V30 1167 C  -30.3222 13.0749 33.5311 0 CFG=2
M  V30 1168 C  -29.0265 12.2588 33.6057 0
M  V30 1169 O  -28.9162 11.3518 34.4306 0
M  V30 1170 C  -30.8468 13.4919 34.9304 0
M  V30 1171 C  -32.1110 14.3795 34.9602 0
M  V30 1172 O  -32.4774 14.9710 33.9192 0
M  V30 1173 O  -32.6483 14.5376 36.0777 0 CHG=-1
M  V30 1174 N  -28.0902 12.5833 32.6976 0
M  V30 1175 C  -26.7796 11.9457 32.5392 0 CFG=2
M  V30 1176 C  -25.8244 12.1720 33.7277 0
M  V30 1177 O  -26.1075 12.9799 34.6121 0
M  V30 1178 N  -24.6944 11.4398 33.7031 0
M  V30 1179 C  -23.6087 11.4978 34.6914 0 CFG=2
M  V30 1180 C  -22.9654 12.8906 34.8395 0
M  V30 1181 O  -22.5923 13.2579 35.9528 0
M  V30 1182 N  -22.8836 13.6420 33.7278 0
M  V30 1183 C  -22.4839 15.0462 33.6981 0
M  V30 1184 C  -23.7470 15.9001 33.8606 0
M  V30 1185 O  -24.5469 15.6756 34.7694 0
M  V30 1186 N  -23.9193 16.8895 32.9708 0
M  V30 1187 C  -25.1534 17.6699 32.8491 0 CFG=2
M  V30 1188 C  -26.3019 16.8197 32.2727 0
M  V30 1189 O  -26.0504 15.8844 31.5109 0
M  V30 1190 C  -24.8846 18.8928 31.9505 0
M  V30 1191 O  -24.1551 19.8721 32.6621 0
M  V30 1192 N  -27.5424 17.1834 32.6329 0
M  V30 1193 C  -28.7785 16.6048 32.0965 0 CFG=2
M  V30 1194 C  -28.9644 16.8948 30.5952 0
M  V30 1195 O  -28.5956 17.9752 30.1325 0
M  V30 1196 C  -29.9827 17.0768 32.9445 0
M  V30 1197 C  -29.9436 18.5229 33.4213 0
M  V30 1198 C  -30.1215 19.5852 32.5105 0
M  V30 1199 C  -29.6979 18.8085 34.7821 0
M  V30 1200 C  -30.0207 20.9198 32.9477 0
M  V30 1201 C  -29.6093 20.1432 35.2219 0
M  V30 1202 C  -29.7618 21.2000 34.3034 0
M  V30 1203 O  -29.6608 22.4924 34.7284 0
M  V30 1204 N  -29.4986 15.9031 29.8637 0
M  V30 1205 C  -29.6310 15.9226 28.4060 0 CFG=2
M  V30 1206 C  -30.8764 15.1146 28.0157 0
M  V30 1207 O  -30.8747 13.8960 28.2014 0
M  V30 1208 N  -31.8955 15.7757 27.4363 0
M  V30 1209 C  -33.0210 15.0742 26.8084 0 CFG=2
M  V30 1210 C  -32.6099 14.5375 25.4260 0
M  V30 1211 O  -31.7620 15.1216 24.7517 0
M  V30 1212 N  -33.2142 13.4079 25.0512 0
M  V30 1213 C  -32.9216 12.6697 23.8271 0 CFG=2
M  V30 1214 C  -34.2346 12.2770 23.1339 0
M  V30 1215 O  -35.3171 12.6002 23.6266 0
M  V30 1216 C  -32.0449 11.4073 24.1263 0 CFG=2
M  V30 1217 C  -32.6251 10.4152 25.1720 0
M  V30 1218 C  -30.6266 11.8389 24.5476 0
M  V30 1219 C  -33.7249 9.4747 24.6589 0
M  V30 1220 N  -34.1201 11.5839 21.9937 0
M  V30 1221 C  -35.2666 11.0146 21.3055 0 CFG=2
M  V30 1222 C  -34.8948 9.6645 20.6863 0
M  V30 1223 O  -33.8443 9.5358 20.0555 0
M  V30 1224 C  -35.8099 12.0068 20.2674 0
M  V30 1225 S  -37.3493 11.4371 19.5064 0
M  V30 1226 N  -35.8113 8.7070 20.8724 0
M  V30 1227 C  -35.7772 7.3435 20.3612 0 CFG=2
M  V30 1228 C  -37.2221 6.8229 20.2622 0
M  V30 1229 O  -38.1457 7.4662 20.7650 0
M  V30 1230 C  -34.8106 6.4689 21.2044 0
M  V30 1231 C  -35.0538 6.3974 22.7359 0
M  V30 1232 C  -36.3056 5.5920 23.1256 0
M  V30 1233 C  -33.8083 5.8448 23.4607 0
M  V30 1234 N  -37.4030 5.6708 19.5982 0
M  V30 1235 C  -38.7027 5.0099 19.4590 0 CFG=2
M  V30 1236 C  -39.1362 4.4090 20.8098 0
M  V30 1237 O  -38.4410 3.5292 21.3182 0
M  V30 1238 C  -38.5988 3.9599 18.3275 0
M  V30 1239 C  -39.9037 3.2066 17.9803 0
M  V30 1240 C  -41.0479 4.1516 17.5746 0
M  V30 1241 C  -39.6504 2.1343 16.9051 0
M  V30 1242 N  -40.2452 4.9299 21.3673 0
M  V30 1243 C  -40.7799 4.6160 22.6997 0 CFG=2
M  V30 1244 C  -40.9727 3.0989 22.9388 0
M  V30 1245 O  -41.7671 2.4942 22.2158 0
M  V30 1246 C  -42.1252 5.3633 22.8788 0
M  V30 1247 C  -42.0437 6.6391 23.6838 0
M  V30 1248 N  -43.1013 7.0790 24.4879 0
M  V30 1249 C  -41.0019 7.5377 23.7976 0
M  V30 1250 C  -42.6656 8.1994 25.0477 0
M  V30 1251 N  -41.4251 8.5176 24.6789 0
M  V30 1252 N  -40.2602 2.5111 23.9359 0
M  V30 1253 C  -40.4907 1.1157 24.3666 0 CFG=2
M  V30 1254 C  -41.9212 0.8404 24.8637 0
M  V30 1255 O  -42.5229 -0.1482 24.4456 0
M  V30 1256 C  -39.4552 0.8816 25.4854 0
M  V30 1257 C  -38.3867 1.9343 25.2594 0
M  V30 1258 C  -39.1703 3.1149 24.7073 0
M  V30 1259 N  -42.4350 1.7359 25.7251 0
M  V30 1260 C  -43.8012 1.6989 26.2380 0 CFG=2
M  V30 1261 C  -44.7405 2.2966 25.1772 0
M  V30 1262 O  -44.6053 3.4762 24.8486 0
M  V30 1263 C  -43.9388 2.5135 27.5575 0
M  V30 1264 C  -45.3844 2.5775 28.0968 0
M  V30 1265 C  -43.0071 1.9653 28.6537 0
M  V30 1266 N  -45.6556 1.4613 24.6616 0
M  V30 1267 C  -46.5882 1.8246 23.5984 0 CFG=2
M  V30 1268 C  -48.0411 1.5373 23.9799 0
M  V30 1269 O  -48.3228 0.5599 24.6729 0
M  V30 1270 C  -46.1770 1.1294 22.2768 0
M  V30 1271 C  -45.4363 2.0759 21.3157 0
M  V30 1272 C  -46.3030 3.2534 20.8469 0
M  V30 1273 O  -47.5296 3.1668 20.7861 0
M  V30 1274 N  -45.6610 4.3706 20.5220 0
M  V30 1275 N  -48.9263 2.4261 23.5020 0
M  V30 1276 C  -50.3545 2.4456 23.8022 0 CFG=2
M  V30 1277 C  -51.1464 1.3857 23.0246 0
M  V30 1278 O  -52.0124 0.7430 23.6163 0
M  V30 1279 N  -50.8497 1.2372 21.7233 0
M  V30 1280 C  -51.5715 0.3346 20.8262 0 CFG=2
M  V30 1281 C  -50.7624 -0.9576 20.6175 0
M  V30 1282 O  -49.5377 -0.8927 20.4969 0
M  V30 1283 C  -51.8056 0.9883 19.4355 0 CFG=2
M  V30 1284 O  -52.3578 2.2798 19.6021 0
M  V30 1285 C  -52.7857 0.2207 18.5295 0
M  V30 1286 N  -51.4662 -2.1020 20.5500 0
M  V30 1287 C  -50.8915 -3.4269 20.2844 0 CFG=2
M  V30 1288 C  -50.2136 -3.5565 18.9057 0
M  V30 1289 O  -49.2844 -4.3522 18.7690 0
M  V30 1290 C  -51.9876 -4.4892 20.4473 0
M  V30 1291 N  -50.6600 -2.7409 17.9333 0
M  V30 1292 C  -50.0544 -2.5690 16.6130 0 CFG=2
M  V30 1293 C  -48.6095 -2.0464 16.6955 0
M  V30 1294 O  -47.7289 -2.5901 16.0290 0
M  V30 1295 C  -50.9603 -1.6400 15.7687 0
M  V30 1296 C  -50.5151 -1.3214 14.3485 0
M  V30 1297 C  -49.9593 -2.3237 13.5226 0
M  V30 1298 C  -50.8312 -0.0695 13.7760 0
M  V30 1299 C  -49.6624 -2.0495 12.1952 0
M  V30 1300 C  -50.5332 0.1833 12.4432 0
M  V30 1301 C  -49.9460 -0.8007 11.6581 0
M  V30 1302 N  -48.3999 -1.0306 17.5484 0
M  V30 1303 C  -47.1002 -0.4167 17.7935 0 CFG=2
M  V30 1304 C  -46.1814 -1.2478 18.6995 0
M  V30 1305 O  -44.9676 -1.1719 18.5195 0
M  V30 1306 C  -47.2936 0.9973 18.3698 0
M  V30 1307 C  -48.0424 1.9867 17.4605 0
M  V30 1308 S  -47.4810 2.0816 15.7358 0
M  V30 1309 C  -45.6935 2.2734 15.9620 0
M  V30 1310 N  -46.7567 -2.0390 19.6231 0
M  V30 1311 C  -46.0218 -2.9770 20.4776 0 CFG=2
M  V30 1312 C  -45.3771 -4.1026 19.6477 0
M  V30 1313 O  -44.2148 -4.4297 19.8891 0
M  V30 1314 N  -46.1248 -4.6349 18.6624 0
M  V30 1315 C  -45.6183 -5.6076 17.6955 0 CFG=2
M  V30 1316 C  -44.5224 -5.0188 16.7916 0
M  V30 1317 O  -43.4882 -5.6629 16.6109 0
M  V30 1318 N  -44.7541 -3.7912 16.2904 0
M  V30 1319 C  -43.8083 -3.0586 15.4514 0 CFG=2
M  V30 1320 C  -42.4702 -2.7646 16.1488 0
M  V30 1321 O  -41.4464 -2.8322 15.4790 0
M  V30 1322 C  -44.4497 -1.7564 14.9299 0
M  V30 1323 C  -43.6259 -1.0565 13.8621 0
M  V30 1324 C  -42.7005 -0.0430 14.1995 0
M  V30 1325 C  -43.7650 -1.4587 12.5201 0
M  V30 1326 C  -41.9053 0.5498 13.1981 0
M  V30 1327 C  -42.9875 -0.8530 11.5195 0
M  V30 1328 C  -42.0525 0.1433 11.8561 0
M  V30 1329 O  -41.3283 0.7365 10.8672 0
M  V30 1330 N  -42.5023 -2.4526 17.4569 0
M  V30 1331 C  -41.3407 -2.0690 18.2601 0 CFG=2
M  V30 1332 C  -40.2296 -3.1316 18.3105 0
M  V30 1333 O  -39.0711 -2.7899 18.0735 0
M  V30 1334 C  -41.8000 -1.6849 19.6754 0
M  V30 1335 N  -40.6046 -4.3928 18.5872 0
M  V30 1336 C  -39.6764 -5.5271 18.6394 0 CFG=2
M  V30 1337 C  -39.2790 -6.0070 17.2316 0
M  V30 1338 O  -38.0928 -6.2237 16.9821 0
M  V30 1339 C  -40.2940 -6.7284 19.4081 0 CFG=2
M  V30 1340 O  -40.4755 -6.3531 20.7589 0
M  V30 1341 C  -39.4755 -8.0357 19.3974 0
M  V30 1342 N  -40.2756 -6.1523 16.3421 0
M  V30 1343 C  -40.1064 -6.6792 14.9898 0 CFG=2
M  V30 1344 C  -39.6340 -5.6329 13.9612 0
M  V30 1345 O  -39.6974 -5.9306 12.7697 0
M  V30 1346 C  -41.4233 -7.3464 14.5559 0
M  V30 1347 N  -39.1728 -4.4450 14.4052 0
M  V30 1348 C  -38.7325 -3.3577 13.5254 0 CFG=2
M  V30 1349 C  -37.4750 -3.7211 12.7260 0
M  V30 1350 O  -37.4408 -3.4371 11.5350 0
M  V30 1351 C  -38.4827 -2.0489 14.3011 0
M  V30 1352 C  -38.2641 -0.8415 13.3615 0
M  V30 1353 C  -37.8340 0.4370 14.0777 0
M  V30 1354 C  -36.4217 0.3459 14.6777 0
M  V30 1355 N  -35.9987 1.6381 15.2396 0 CHG=1
M  V30 1356 N  -36.4734 -4.3287 13.3844 0
M  V30 1357 C  -35.1988 -4.7275 12.7697 0 CFG=2
M  V30 1358 C  -35.3907 -5.7636 11.6489 0
M  V30 1359 O  -34.6910 -5.6899 10.6380 0
M  V30 1360 C  -34.1605 -5.2372 13.8001 0
M  V30 1361 C  -33.8493 -4.3003 14.9839 0
M  V30 1362 O  -34.0648 -3.0718 14.8598 0
M  V30 1363 O  -33.2579 -4.8176 15.9569 0 CHG=-1
M  V30 1364 N  -36.3851 -6.6514 11.8282 0
M  V30 1365 C  -36.8646 -7.5646 10.7990 0 CFG=2
M  V30 1366 C  -37.7046 -6.8637 9.7344 0
M  V30 1367 O  -37.4913 -7.1710 8.5759 0
M  V30 1368 C  -37.6476 -8.7333 11.4083 0
M  V30 1369 C  -36.8604 -9.5693 12.3620 0
M  V30 1370 C  -37.0437 -9.6131 13.6992 0
M  V30 1371 C  -35.7172 -10.4338 12.0801 0
M  V30 1372 N  -36.1210 -10.4687 14.2578 0
M  V30 1373 C  -35.2665 -10.9952 13.3119 0
M  V30 1374 C  -35.0085 -10.7999 10.9105 0
M  V30 1375 C  -34.1727 -11.8756 13.3818 0
M  V30 1376 C  -33.9066 -11.6777 10.9681 0
M  V30 1377 C  -33.4879 -12.2150 12.2010 0
M  V30 1378 N  -38.6125 -5.9435 10.0969 0
M  V30 1379 C  -39.4060 -5.1591 9.1437 0 CFG=2
M  V30 1380 C  -38.5499 -4.3117 8.1836 0
M  V30 1381 O  -38.7900 -4.3378 6.9793 0
M  V30 1382 C  -40.4576 -4.3104 9.8876 0
M  V30 1383 C  -41.0863 -3.2212 9.0723 0
M  V30 1384 C  -40.8342 -1.9014 9.2087 0
M  V30 1385 C  -41.9402 -3.3452 7.8988 0
M  V30 1386 N  -41.4939 -1.1959 8.2264 0
M  V30 1387 C  -42.1812 -2.0380 7.3791 0
M  V30 1388 C  -42.5133 -4.4331 7.2004 0
M  V30 1389 C  -42.9621 -1.8230 6.2345 0
M  V30 1390 C  -43.2963 -4.2275 6.0471 0
M  V30 1391 C  -43.5196 -2.9251 5.5629 0
M  V30 1392 N  -37.5588 -3.6056 8.7438 0
M  V30 1393 C  -36.5506 -2.8249 8.0339 0 CFG=2
M  V30 1394 C  -35.7487 -3.7002 7.0546 0
M  V30 1395 O  -35.5579 -3.2857 5.9173 0
M  V30 1396 C  -35.6361 -2.1313 9.0731 0
M  V30 1397 C  -36.0207 -0.6776 9.4504 0
M  V30 1398 C  -37.5225 -0.4635 9.7325 0
M  V30 1399 C  -35.1430 -0.1800 10.6220 0
M  V30 1400 N  -35.3454 -4.9063 7.4853 0
M  V30 1401 C  -34.6204 -5.8680 6.6571 0 CFG=2
M  V30 1402 C  -35.4898 -6.6151 5.6297 0
M  V30 1403 O  -35.2279 -6.5144 4.4336 0
M  V30 1404 C  -33.7928 -6.8010 7.5630 0
M  V30 1405 C  -33.0875 -7.9453 6.8593 0
M  V30 1406 C  -32.2036 -7.6875 5.7915 0
M  V30 1407 C  -33.2839 -9.2750 7.2831 0
M  V30 1408 C  -31.5106 -8.7290 5.1940 0
M  V30 1409 C  -32.5923 -10.3060 6.6621 0
M  V30 1410 C  -31.7040 -10.0328 5.6294 0
M  V30 1411 N  -36.4934 -7.3593 6.1155 0
M  V30 1412 C  -37.4087 -8.2014 5.3441 0 CFG=2
M  V30 1413 C  -38.2823 -7.4278 4.3450 0
M  V30 1414 O  -38.6151 -8.0005 3.3090 0
M  V30 1415 C  -38.2448 -9.1003 6.2827 0
M  V30 1416 O  -39.3514 -8.4296 6.8579 0
M  V30 1417 N  -38.5956 -6.1479 4.6284 0
M  V30 1418 C  -39.1068 -5.2433 3.6060 0 CFG=2
M  V30 1419 C  -37.9008 -4.6621 2.8590 0
M  V30 1420 O  -37.4603 -5.3238 1.9291 0
M  V30 1421 C  -40.1017 -4.1935 4.1447 0
M  V30 1422 C  -40.9130 -3.5641 3.0201 0
M  V30 1423 C  -40.3781 -2.5148 2.2396 0
M  V30 1424 C  -42.1088 -4.1810 2.5935 0
M  V30 1425 C  -41.0247 -2.1004 1.0835 0
M  V30 1426 C  -42.7662 -3.7231 1.4595 0
M  V30 1427 C  -42.2204 -2.6950 0.7014 0
M  V30 1428 N  -37.4050 -3.4739 3.2584 0
M  V30 1429 C  -36.5469 -2.5694 2.4732 0 CFG=2
M  V30 1430 C  -35.3305 -3.1948 1.7741 0
M  V30 1431 O  -34.9796 -2.7201 0.6944 0
M  V30 1432 C  -36.0854 -1.3603 3.3163 0
M  V30 1433 C  -37.1800 -0.4387 3.8251 0
M  V30 1434 C  -38.0456 -0.8262 4.8722 0
M  V30 1435 C  -37.3140 0.8421 3.2565 0
M  V30 1436 C  -39.0394 0.0592 5.3375 0
M  V30 1437 C  -38.2902 1.7294 3.7350 0
M  V30 1438 C  -39.1543 1.3459 4.7755 0
M  V30 1439 O  -40.0941 2.2225 5.2328 0
M  V30 1440 N  -34.7271 -4.2404 2.3624 0
M  V30 1441 C  -33.6508 -4.9767 1.7114 0 CFG=2
M  V30 1442 C  -34.2017 -6.1463 0.8881 0
M  V30 1443 O  -33.9096 -6.2057 -0.3008 0
M  V30 1444 C  -32.6162 -5.4504 2.7442 0
M  V30 1445 C  -31.2767 -5.7775 2.1191 0
M  V30 1446 C  -30.4682 -4.7329 1.6252 0
M  V30 1447 C  -30.9139 -7.1142 1.8557 0
M  V30 1448 C  -29.3150 -5.0255 0.9147 0
M  V30 1449 C  -29.7463 -7.3861 1.1574 0
M  V30 1450 C  -28.9575 -6.3465 0.6828 0
M  V30 1451 N  -34.9522 -7.0639 1.5213 0
M  V30 1452 C  -35.3021 -8.3539 0.9252 0 CFG=2
M  V30 1453 C  -36.3555 -8.2444 -0.1856 0
M  V30 1454 O  -36.0745 -8.7196 -1.2808 0
M  V30 1455 C  -35.7206 -9.4136 1.9570 0
M  V30 1456 S  -34.3891 -9.7034 3.1515 0
M  V30 1457 N  -37.5263 -7.6400 0.0913 0
M  V30 1458 C  -38.6414 -7.5522 -0.8633 0 CFG=2
M  V30 1459 C  -38.2988 -6.7820 -2.1552 0
M  V30 1460 O  -38.5163 -7.3538 -3.2220 0
M  V30 1461 C  -39.9260 -7.0159 -0.1799 0
M  V30 1462 C  -41.0439 -8.0659 -0.0007 0
M  V30 1463 C  -40.6141 -9.2634 0.8744 0
M  V30 1464 C  -42.3504 -7.4124 0.4953 0
M  V30 1465 N  -37.7123 -5.5629 -2.0733 0
M  V30 1466 C  -37.2235 -4.8602 -3.2607 0 CFG=2
M  V30 1467 C  -36.1419 -5.5818 -4.0691 0
M  V30 1468 O  -36.2807 -5.6214 -5.2854 0
M  V30 1469 C  -36.7637 -3.4906 -2.7537 0
M  V30 1470 C  -37.5952 -3.2731 -1.5048 0
M  V30 1471 C  -37.6608 -4.6734 -0.9201 0
M  V30 1472 N  -35.1226 -6.1694 -3.4179 0
M  V30 1473 C  -34.0490 -6.8815 -4.1225 0 CFG=2
M  V30 1474 C  -34.5380 -8.1985 -4.7413 0
M  V30 1475 O  -34.1166 -8.5054 -5.8516 0
M  V30 1476 C  -32.8291 -7.1335 -3.2119 0
M  V30 1477 C  -31.8129 -5.9717 -3.1332 0
M  V30 1478 C  -32.3852 -4.6456 -2.5882 0
M  V30 1479 C  -30.5635 -6.4156 -2.3524 0
M  V30 1480 N  -35.4288 -8.9261 -4.0454 0
M  V30 1481 C  -36.0583 -10.1538 -4.5315 0 CFG=2
M  V30 1482 C  -36.9490 -9.9131 -5.7578 0
M  V30 1483 O  -36.8373 -10.6649 -6.7232 0
M  V30 1484 C  -36.8618 -10.8186 -3.4034 0
M  V30 1485 N  -37.7781 -8.8552 -5.7107 0
M  V30 1486 C  -38.6403 -8.4304 -6.8136 0 CFG=2
M  V30 1487 C  -37.8294 -7.9107 -8.0153 0
M  V30 1488 O  -38.0489 -8.3932 -9.1251 0
M  V30 1489 C  -39.6955 -7.3714 -6.3573 0 CFG=2
M  V30 1490 C  -40.7567 -8.0394 -5.4484 0
M  V30 1491 C  -40.4017 -6.5968 -7.4965 0
M  V30 1492 C  -41.6339 -7.0483 -4.6679 0
M  V30 1493 N  -36.9002 -6.9670 -7.7777 0
M  V30 1494 C  -36.1306 -6.3155 -8.8411 0 CFG=2
M  V30 1495 C  -35.1509 -7.2657 -9.5603 0
M  V30 1496 O  -35.0604 -7.1997 -10.7857 0
M  V30 1497 C  -35.3446 -5.0610 -8.3673 0 CFG=2
M  V30 1498 O  -36.1700 -4.2172 -7.5960 0
M  V30 1499 C  -34.8580 -4.1617 -9.5099 0
M  V30 1500 N  -34.4920 -8.1675 -8.8061 0
M  V30 1501 C  -33.6280 -9.2169 -9.3545 0 CFG=2
M  V30 1502 C  -34.4003 -10.2930 -10.1333 0
M  V30 1503 O  -33.8644 -10.7935 -11.1212 0
M  V30 1504 C  -32.7985 -9.8689 -8.2391 0
M  V30 1505 N  -35.6360 -10.6105 -9.7008 0
M  V30 1506 C  -36.5179 -11.5603 -10.3799 0 CFG=2
M  V30 1507 C  -36.9656 -11.0722 -11.7655 0
M  V30 1508 O  -36.7724 -11.8027 -12.7350 0
M  V30 1509 C  -37.6942 -11.9737 -9.4697 0
M  V30 1510 C  -38.7232 -12.9012 -10.0972 0
M  V30 1511 C  -38.3306 -14.1671 -10.5831 0
M  V30 1512 C  -40.0738 -12.5078 -10.2112 0
M  V30 1513 C  -39.2685 -15.0091 -11.1641 0
M  V30 1514 C  -40.9984 -13.3713 -10.7843 0
M  V30 1515 C  -40.5972 -14.6149 -11.2588 0
M  V30 1516 N  -37.4969 -9.8385 -11.8429 0
M  V30 1517 C  -37.8806 -9.2075 -13.1083 0 CFG=2
M  V30 1518 C  -36.7059 -8.8958 -14.0429 0
M  V30 1519 O  -36.8857 -8.9998 -15.2537 0
M  V30 1520 C  -38.7601 -7.9649 -12.8753 0
M  V30 1521 C  -40.1861 -8.3070 -12.4923 0
M  V30 1522 C  -41.0423 -8.9048 -13.4402 0
M  V30 1523 C  -40.6373 -8.1433 -11.1674 0
M  V30 1524 C  -42.3253 -9.2863 -13.0746 0
M  V30 1525 C  -41.9235 -8.5323 -10.8198 0
M  V30 1526 C  -42.7648 -9.0960 -11.7706 0
M  V30 1527 N  -35.5265 -8.5782 -13.4801 0
M  V30 1528 C  -34.2815 -8.4351 -14.2337 0 CFG=2
M  V30 1529 C  -33.8282 -9.7576 -14.8827 0
M  V30 1530 O  -33.4399 -9.7393 -16.0487 0
M  V30 1531 C  -33.1856 -7.8134 -13.3413 0
M  V30 1532 C  -31.8138 -7.7566 -13.9899 0
M  V30 1533 C  -31.5647 -6.8218 -15.0141 0
M  V30 1534 C  -30.8138 -8.6854 -13.6289 0
M  V30 1535 C  -30.3315 -6.8330 -15.6886 0
M  V30 1536 C  -29.5764 -8.6888 -14.3010 0
M  V30 1537 C  -29.3363 -7.7645 -15.3353 0
M  V30 1538 O  -28.1457 -7.7764 -16.0021 0
M  V30 1539 N  -33.9032 -10.8726 -14.1347 0
M  V30 1540 C  -33.5453 -12.2081 -14.6199 0 CFG=2
M  V30 1541 C  -34.5152 -12.7140 -15.7053 0
M  V30 1542 O  -34.0393 -13.2302 -16.7150 0
M  V30 1543 C  -33.4802 -13.2483 -13.4701 0 CFG=2
M  V30 1544 O  -32.4252 -12.8887 -12.5996 0
M  V30 1545 C  -33.2512 -14.7119 -13.8951 0
M  V30 1546 N  -35.8330 -12.5068 -15.5145 0
M  V30 1547 C  -36.8690 -12.7984 -16.5135 0 CFG=2
M  V30 1548 C  -36.6735 -11.9970 -17.8084 0
M  V30 1549 O  -36.8180 -12.5660 -18.8897 0
M  V30 1550 C  -38.2738 -12.4939 -15.9477 0
M  V30 1551 C  -38.7776 -13.4555 -14.8539 0
M  V30 1552 C  -40.0660 -12.8907 -14.2190 0
M  V30 1553 C  -38.9503 -14.9004 -15.3714 0
M  V30 1554 N  -36.3307 -10.7054 -17.6638 0
M  V30 1555 C  -36.0816 -9.7923 -18.7698 0 CFG=2
M  V30 1556 C  -34.8309 -10.1690 -19.5759 0
M  V30 1557 O  -34.9503 -10.3003 -20.7867 0
M  V30 1558 C  -36.0345 -8.3401 -18.2605 0
M  V30 1559 C  -36.0399 -7.3034 -19.3878 0
M  V30 1560 S  -35.6342 -5.6299 -18.8460 0
M  V30 1561 C  -35.6981 -4.8023 -20.4595 0
M  V30 1562 N  -33.6741 -10.3536 -18.9180 0
M  V30 1563 C  -32.4079 -10.6895 -19.5842 0 CFG=2
M  V30 1564 C  -32.3841 -12.0950 -20.2225 0
M  V30 1565 O  -31.7480 -12.2445 -21.2662 0
M  V30 1566 C  -31.1922 -10.5751 -18.6352 0 CFG=2
M  V30 1567 O  -31.3444 -11.3879 -17.4855 0
M  V30 1568 C  -30.9234 -9.1299 -18.2014 0
M  V30 1569 N  -33.1183 -13.0693 -19.6535 0
M  V30 1570 C  -33.3457 -14.3818 -20.2729 0 CFG=2
M  V30 1571 C  -34.2179 -14.2772 -21.5405 0
M  V30 1572 O  -33.9854 -15.0238 -22.4914 0
M  V30 1573 C  -33.9621 -15.3940 -19.2888 0
M  V30 1574 S  -32.7165 -15.9104 -18.0740 0
M  V30 1575 N  -35.1704 -13.3292 -21.5445 0
M  V30 1576 C  -35.9819 -12.9613 -22.7013 0 CFG=2
M  V30 1577 C  -35.2035 -12.1985 -23.7870 0
M  V30 1578 O  -35.4140 -12.4927 -24.9632 0
M  V30 1579 C  -37.2483 -12.2270 -22.2227 0
M  V30 1580 C  -38.0174 -11.4512 -23.3098 0
M  V30 1581 C  -39.2363 -10.7399 -22.7321 0
M  V30 1582 O  -40.1161 -11.4547 -22.2068 0
M  V30 1583 O  -39.2906 -9.4969 -22.8541 0 CHG=-1
M  V30 1584 N  -34.3318 -11.2498 -23.3860 0
M  V30 1585 C  -33.4521 -10.4899 -24.2835 0 CFG=2
M  V30 1586 C  -32.5714 -11.4188 -25.1205 0
M  V30 1587 O  -32.5092 -11.2385 -26.3298 0
M  V30 1588 C  -32.5063 -9.5433 -23.5170 0
M  V30 1589 C  -33.1271 -8.3327 -22.8228 0
M  V30 1590 S  -31.8369 -7.3924 -21.9795 0
M  V30 1591 C  -32.8236 -6.0208 -21.3658 0
M  V30 1592 N  -31.9465 -12.3991 -24.4465 0
M  V30 1593 C  -31.1165 -13.4561 -25.0150 0 CFG=2
M  V30 1594 C  -31.8499 -14.2815 -26.0815 0
M  V30 1595 O  -31.3151 -14.4431 -27.1750 0
M  V30 1596 C  -30.6029 -14.3273 -23.8486 0
M  V30 1597 C  -29.8557 -15.6335 -24.2049 0
M  V30 1598 C  -28.5540 -15.3823 -24.9931 0
M  V30 1599 C  -29.6372 -16.4779 -22.9372 0
M  V30 1600 N  -33.0628 -14.7556 -25.7489 0
M  V30 1601 C  -33.9710 -15.4589 -26.6574 0 CFG=2
M  V30 1602 C  -34.3194 -14.6367 -27.9088 0
M  V30 1603 O  -34.2912 -15.1838 -29.0108 0
M  V30 1604 C  -35.2155 -15.9251 -25.8621 0
M  V30 1605 C  -36.5411 -16.0457 -26.6526 0
M  V30 1606 C  -37.5837 -16.9471 -25.9784 0
M  V30 1607 N  -37.2311 -18.3595 -26.1778 0
M  V30 1608 C  -37.8975 -19.2828 -26.8877 0
M  V30 1609 N  -37.2837 -20.4414 -27.1107 0
M  V30 1610 N  -39.1327 -19.0933 -27.3762 0 CHG=1
M  V30 1611 N  -34.6245 -13.3457 -27.7119 0
M  V30 1612 C  -34.9197 -12.4200 -28.7961 0 CFG=2
M  V30 1613 C  -33.6910 -12.0562 -29.6410 0
M  V30 1614 O  -33.8709 -11.8932 -30.8408 0
M  V30 1615 C  -35.6538 -11.1797 -28.2623 0
M  V30 1616 C  -37.1184 -11.4761 -27.8971 0
M  V30 1617 C  -37.9384 -10.1973 -27.6654 0
M  V30 1618 C  -39.4570 -10.4396 -27.6241 0
M  V30 1619 N  -39.8938 -11.0596 -26.3650 0 CHG=1
M  V30 1620 N  -32.4846 -11.9985 -29.0437 0
M  V30 1621 C  -31.2022 -11.8219 -29.7422 0 CFG=2
M  V30 1622 C  -30.8423 -13.0416 -30.6081 0
M  V30 1623 O  -30.2607 -12.8451 -31.6727 0
M  V30 1624 C  -30.0498 -11.5347 -28.7444 0
M  V30 1625 C  -30.1222 -10.1892 -28.0139 0
M  V30 1626 O  -30.7681 -9.2475 -28.4638 0
M  V30 1627 N  -29.4330 -10.0846 -26.8768 0
M  V30 1628 N  -31.2161 -14.2586 -30.1670 0
M  V30 1629 C  -31.0825 -15.5000 -30.9381 0 CFG=2
M  V30 1630 C  -32.0387 -15.5272 -32.1477 0
M  V30 1631 O  -31.6254 -15.9521 -33.2238 0
M  V30 1632 C  -31.2897 -16.7742 -30.0627 0 CFG=2
M  V30 1633 C  -30.1545 -16.9135 -29.0253 0
M  V30 1634 C  -31.4078 -18.0982 -30.8549 0
M  V30 1635 C  -30.4902 -17.8393 -27.8475 0
M  V30 1636 N  -33.2737 -15.0254 -31.9760 0
M  V30 1637 C  -34.2181 -14.8273 -33.0791 0 CFG=2
M  V30 1638 C  -33.7864 -13.7016 -34.0326 0
M  V30 1639 O  -34.0537 -13.8080 -35.2283 0
M  V30 1640 C  -35.6391 -14.5653 -32.5350 0
M  V30 1641 C  -36.2782 -15.6670 -31.7016 0
M  V30 1642 C  -35.8872 -17.0176 -31.8363 0
M  V30 1643 C  -37.3948 -15.3637 -30.8917 0
M  V30 1644 C  -36.5530 -18.0059 -31.1312 0
M  V30 1645 C  -38.0570 -16.3739 -30.2066 0
M  V30 1646 C  -37.6329 -17.6891 -30.3261 0
M  V30 1647 N  -33.1084 -12.6707 -33.4954 0
M  V30 1648 C  -32.6031 -11.5225 -34.2419 0 CFG=2
M  V30 1649 C  -31.4484 -11.9368 -35.1691 0
M  V30 1650 O  -31.5196 -11.6273 -36.3553 0
M  V30 1651 C  -32.1642 -10.3955 -33.2737 0
M  V30 1652 C  -32.2848 -8.9808 -33.8756 0
M  V30 1653 C  -33.7176 -8.4180 -33.9099 0
M  V30 1654 O  -34.0338 -7.7574 -34.9230 0
M  V30 1655 O  -34.4650 -8.6223 -32.9251 0 CHG=-1
M  V30 1656 N  -30.4338 -12.6471 -34.6319 0
M  V30 1657 C  -29.2641 -13.1028 -35.3940 0 CFG=2
M  V30 1658 C  -29.6083 -14.1167 -36.4990 0
M  V30 1659 O  -29.0286 -14.0235 -37.5781 0
M  V30 1660 C  -28.1228 -13.5985 -34.4711 0
M  V30 1661 C  -28.4072 -14.8361 -33.5987 0
M  V30 1662 S  -27.1716 -16.1623 -33.6542 0
M  V30 1663 C  -25.7146 -15.3530 -32.9422 0
M  V30 1664 N  -30.5728 -15.0171 -36.2441 0
M  V30 1665 C  -31.0441 -15.9937 -37.2259 0 CFG=2
M  V30 1666 C  -31.9144 -15.3633 -38.3300 0
M  V30 1667 O  -31.8345 -15.8230 -39.4689 0
M  V30 1668 C  -31.7912 -17.1298 -36.5014 0
M  V30 1669 C  -30.9020 -18.0622 -35.6515 0
M  V30 1670 C  -31.7690 -19.0284 -34.8212 0
M  V30 1671 C  -29.8431 -18.8045 -36.4872 0
M  V30 1672 N  -32.6825 -14.3053 -38.0030 0
M  V30 1673 C  -33.4310 -13.5096 -38.9824 0 CFG=2
M  V30 1674 C  -32.5104 -12.6530 -39.8773 0
M  V30 1675 O  -32.8259 -12.4789 -41.0537 0
M  V30 1676 N  -31.3892 -12.1585 -39.3198 0
M  V30 1677 C  -30.3621 -11.3904 -40.0336 0 CFG=2
M  V30 1678 C  -29.6309 -12.2206 -41.1108 0
M  V30 1679 O  -29.4004 -11.7089 -42.2060 0
M  V30 1680 C  -29.3354 -10.7482 -39.0391 0 CFG=2
M  V30 1681 C  -29.9795 -9.5497 -38.3011 0
M  V30 1682 C  -27.9792 -10.3112 -39.6440 0
M  V30 1683 C  -29.2473 -9.1243 -37.0171 0
M  V30 1684 N  -29.2955 -13.4788 -40.7839 0
M  V30 1685 C  -28.5255 -14.3872 -41.6435 0 CFG=2
M  V30 1686 C  -29.3637 -15.1194 -42.6996 0
M  V30 1687 O  -28.7835 -15.6294 -43.6587 0
M  V30 1688 C  -27.7428 -15.4208 -40.8076 0
M  V30 1689 C  -26.7729 -14.8057 -39.7948 0
M  V30 1690 O  -26.1968 -13.7345 -40.0724 0
M  V30 1691 O  -26.4947 -15.4930 -38.7999 0 CHG=-1
M  V30 1692 N  -30.6912 -15.1773 -42.5012 0
M  V30 1693 C  -31.6398 -15.8826 -43.3665 0 CFG=2
M  V30 1694 C  -32.7779 -14.8965 -43.5217 0
M  V30 1695 O  -33.9512 -15.2365 -43.6721 0
M  V30 1696 C  -32.0791 -17.2326 -42.7363 0
M  V30 1697 C  -30.8964 -18.1811 -42.4278 0
M  V30 1698 C  -31.2600 -19.5700 -41.8813 0
M  V30 1699 O  -32.4436 -19.9675 -41.9558 0
M  V30 1700 O  -30.3138 -20.2325 -41.4012 0 CHG=-1
M  V30 1701 N  -40.6949 -18.8078 -36.5545 0
M  V30 1702 C  -39.8439 -20.0181 -36.5052 0 CFG=2
M  V30 1703 C  -39.2604 -20.2096 -35.0730 0
M  V30 1704 O  -38.2053 -20.8286 -34.9299 0
M  V30 1705 C  -38.7739 -19.9916 -37.6352 0
M  V30 1706 C  -37.5548 -19.0988 -37.4400 0
M  V30 1707 C  -37.6931 -17.6956 -37.3952 0
M  V30 1708 C  -36.2795 -19.6708 -37.2385 0
M  V30 1709 C  -36.5810 -16.8972 -37.1713 0
M  V30 1710 C  -35.1777 -18.8545 -37.0262 0
M  V30 1711 C  -35.3322 -17.4741 -36.9935 0
M  V30 1712 N  -39.9769 -19.7531 -34.0265 0
M  V30 1713 C  -39.6342 -19.9170 -32.6073 0 CFG=2
M  V30 1714 C  -39.5211 -21.3860 -32.1550 0
M  V30 1715 O  -38.6167 -21.7103 -31.3849 0
M  V30 1716 C  -40.6156 -19.1079 -31.7163 0
M  V30 1717 C  -42.1089 -19.4825 -31.7949 0
M  V30 1718 O  -42.5640 -20.1579 -32.7163 0
M  V30 1719 N  -42.8908 -19.0240 -30.8163 0
M  V30 1720 N  -40.4151 -22.2401 -32.6824 0
M  V30 1721 C  -40.4329 -23.6839 -32.4705 0 CFG=2
M  V30 1722 C  -39.2421 -24.3881 -33.1403 0
M  V30 1723 O  -38.7926 -25.4042 -32.6191 0
M  V30 1724 N  -38.7442 -23.8327 -34.2582 0
M  V30 1725 C  -37.5971 -24.3459 -35.0114 0 CFG=2
M  V30 1726 C  -36.2803 -24.1571 -34.2410 0
M  V30 1727 O  -35.3951 -25.0003 -34.3648 0
M  V30 1728 C  -37.4390 -23.7822 -36.4522 0
M  V30 1729 C  -38.6600 -23.8085 -37.3973 0
M  V30 1730 O  -39.8208 -23.7579 -36.9322 0
M  V30 1731 O  -38.4017 -23.7353 -38.6182 0 CHG=-1
M  V30 1732 N  -36.1766 -23.0701 -33.4562 0
M  V30 1733 C  -35.0211 -22.7730 -32.6089 0 CFG=2
M  V30 1734 C  -34.9859 -23.6550 -31.3479 0
M  V30 1735 O  -33.9059 -24.1204 -30.9909 0
M  V30 1736 C  -34.9836 -21.2737 -32.2165 0
M  V30 1737 C  -33.9183 -20.8855 -31.1668 0
M  V30 1738 C  -34.8065 -20.4020 -33.4718 0
M  V30 1739 N  -36.1563 -23.9289 -30.7431 0
M  V30 1740 C  -36.3085 -24.9283 -29.6775 0 CFG=2
M  V30 1741 C  -36.1179 -26.3684 -30.1620 0
M  V30 1742 O  -35.5538 -27.1612 -29.4124 0
M  V30 1743 C  -37.6583 -24.8117 -28.9291 0
M  V30 1744 C  -37.7145 -23.7156 -27.8607 0
M  V30 1745 O  -36.7047 -23.5433 -27.1403 0
M  V30 1746 O  -38.8255 -23.1759 -27.6639 0 CHG=-1
M  V30 1747 N  -36.5510 -26.6799 -31.3941 0
M  V30 1748 C  -36.3134 -27.9701 -32.0387 0 CFG=2
M  V30 1749 C  -34.8315 -28.1906 -32.3831 0
M  V30 1750 O  -34.3815 -29.3325 -32.3194 0
M  V30 1751 C  -37.1943 -28.1053 -33.2877 0
M  V30 1752 N  -34.1003 -27.1028 -32.6916 0
M  V30 1753 C  -32.6527 -27.1059 -32.8928 0 CFG=2
M  V30 1754 C  -31.8812 -27.3202 -31.5827 0
M  V30 1755 O  -30.9192 -28.0803 -31.5969 0
M  V30 1756 C  -32.2052 -25.8110 -33.5871 0
M  V30 1757 N  -32.3282 -26.6974 -30.4760 0
M  V30 1758 C  -31.7735 -26.9078 -29.1334 0 CFG=2
M  V30 1759 C  -32.0384 -28.3352 -28.6189 0
M  V30 1760 O  -31.0982 -28.9884 -28.1724 0
M  V30 1761 C  -32.3140 -25.8684 -28.1065 0
M  V30 1762 C  -32.0667 -26.2119 -26.6190 0
M  V30 1763 C  -31.7363 -24.4758 -28.4029 0
M  V30 1764 N  -33.2921 -28.8043 -28.7457 0
M  V30 1765 C  -33.7242 -30.1648 -28.4193 0 CFG=2
M  V30 1766 C  -32.9606 -31.2310 -29.2250 0
M  V30 1767 O  -32.5819 -32.2501 -28.6535 0
M  V30 1768 N  -32.7256 -30.9474 -30.5163 0
M  V30 1769 C  -32.0220 -31.8110 -31.4560 0
M  V30 1770 C  -30.5051 -31.8288 -31.2100 0
M  V30 1771 O  -29.8951 -32.8875 -31.3488 0
M  V30 1772 N  -29.9020 -30.6934 -30.8066 0
M  V30 1773 C  -28.4938 -30.5874 -30.3979 0 CFG=2
M  V30 1774 C  -28.1665 -31.4551 -29.1654 0
M  V30 1775 O  -27.0965 -32.0621 -29.1343 0
M  V30 1776 C  -28.0658 -29.1010 -30.1535 0 CFG=2
M  V30 1777 C  -27.7551 -28.3958 -31.4932 0
M  V30 1778 C  -26.8839 -28.8788 -29.1840 0
M  V30 1779 C  -27.7165 -26.8583 -31.4042 0
M  V30 1780 N  -29.1097 -31.5311 -28.2093 0
M  V30 1781 C  -29.0195 -32.3947 -27.0318 0 CFG=2
M  V30 1782 C  -29.1287 -33.8914 -27.3752 0
M  V30 1783 O  -28.4859 -34.6896 -26.6943 0
M  V30 1784 C  -30.0912 -31.9937 -25.9931 0
M  V30 1785 C  -29.9069 -30.5854 -25.3858 0
M  V30 1786 C  -31.0960 -30.2155 -24.4747 0
M  V30 1787 C  -28.5502 -30.4247 -24.6745 0
M  V30 1788 N  -29.8982 -34.2528 -28.4216 0
M  V30 1789 C  -29.9826 -35.6363 -28.9035 0 CFG=2
M  V30 1790 C  -28.7296 -36.0895 -29.6698 0
M  V30 1791 O  -28.3723 -37.2626 -29.5639 0
M  V30 1792 C  -31.2254 -35.8782 -29.7779 0
M  V30 1793 C  -32.5736 -35.4953 -29.1377 0
M  V30 1794 C  -33.7229 -36.4509 -29.5075 0
M  V30 1795 N  -33.9947 -36.4610 -30.9570 0
M  V30 1796 C  -34.8124 -35.6551 -31.6567 0
M  V30 1797 N  -35.5760 -34.7230 -31.0672 0
M  V30 1798 N  -34.8558 -35.7871 -32.9882 0 CHG=1
M  V30 1799 N  -28.0898 -35.1717 -30.4181 0
M  V30 1800 C  -26.8404 -35.4300 -31.1333 0 CFG=2
M  V30 1801 C  -25.6846 -35.5889 -30.1271 0
M  V30 1802 O  -25.4261 -34.6769 -29.3419 0
M  V30 1803 C  -26.5901 -34.3086 -32.1682 0
M  V30 1804 C  -25.3908 -34.5901 -33.0850 0
M  V30 1805 O  -24.2419 -34.4650 -32.6694 0
M  V30 1806 N  -25.6469 -34.9742 -34.3362 0
M  V30 1807 N  -25.0237 -36.7562 -30.1806 0
M  V30 1808 C  -23.9655 -37.1624 -29.2556 0 CFG=2
M  V30 1809 C  -22.6694 -36.3365 -29.3524 0
M  V30 1810 O  -22.0076 -36.1636 -28.3306 0
M  V30 1811 C  -23.6731 -38.6548 -29.4700 0
M  V30 1812 N  -22.3341 -35.8425 -30.5568 0
M  V30 1813 C  -21.1517 -35.0148 -30.8155 0 CFG=2
M  V30 1814 C  -21.3521 -33.5234 -30.4969 0
M  V30 1815 O  -20.3579 -32.8517 -30.2214 0
M  V30 1816 C  -20.6966 -35.2234 -32.2777 0
M  V30 1817 C  -19.8256 -36.4828 -32.4729 0
M  V30 1818 C  -18.3606 -36.1425 -32.8155 0
M  V30 1819 C  -17.3717 -37.3180 -32.6993 0
M  V30 1820 N  -17.6871 -38.4298 -33.6151 0 CHG=1
M  V30 1821 N  -22.6038 -33.0334 -30.5346 0
M  V30 1822 C  -22.9341 -31.6272 -30.2942 0 CFG=2
M  V30 1823 C  -23.3000 -31.3355 -28.8343 0
M  V30 1824 O  -23.0058 -30.2295 -28.3890 0
M  V30 1825 C  -24.0827 -31.1788 -31.2199 0
M  V30 1826 C  -23.7115 -31.0894 -32.7140 0
M  V30 1827 C  -24.9725 -30.8878 -33.5813 0
M  V30 1828 C  -22.6360 -30.0159 -32.9794 0
M  V30 1829 N  -23.9067 -32.2994 -28.1160 0
M  V30 1830 C  -24.2827 -32.1743 -26.7025 0 CFG=2
M  V30 1831 C  -23.1562 -31.6989 -25.7484 0
M  V30 1832 O  -23.3897 -30.7028 -25.0643 0
M  V30 1833 C  -24.9818 -33.4693 -26.2143 0
M  V30 1834 C  -25.2186 -33.5151 -24.6881 0
M  V30 1835 C  -26.0242 -34.7274 -24.1997 0
M  V30 1836 C  -25.9764 -34.9184 -22.6701 0
M  V30 1837 N  -26.5491 -33.7771 -21.9296 0 CHG=1
M  V30 1838 N  -21.9881 -32.3890 -25.6834 0
M  V30 1839 C  -20.9569 -32.0650 -24.6779 0 CFG=2
M  V30 1840 C  -20.3280 -30.6733 -24.8544 0
M  V30 1841 O  -20.1867 -29.9561 -23.8637 0
M  V30 1842 C  -19.9305 -33.2037 -24.8075 0
M  V30 1843 C  -20.1017 -33.7199 -26.2251 0
M  V30 1844 C  -21.5986 -33.5723 -26.4556 0
M  V30 1845 N  -20.0165 -30.3017 -26.1089 0
M  V30 1846 C  -19.5340 -28.9687 -26.4634 0 CFG=2
M  V30 1847 C  -20.6043 -27.8743 -26.2587 0
M  V30 1848 O  -20.2486 -26.8179 -25.7489 0
M  V30 1849 C  -18.9360 -28.9132 -27.9009 0
M  V30 1850 C  -19.9127 -29.3532 -29.0076 0
M  V30 1851 C  -18.3255 -27.5414 -28.2559 0
M  V30 1852 N  -21.8850 -28.1492 -26.5689 0
M  V30 1853 C  -23.0023 -27.2203 -26.3540 0 CFG=2
M  V30 1854 C  -23.2093 -26.8371 -24.8786 0
M  V30 1855 O  -23.3358 -25.6495 -24.5844 0
M  V30 1856 C  -24.2918 -27.7916 -26.9751 0
M  V30 1857 C  -25.5428 -26.9577 -26.7616 0
M  V30 1858 C  -25.7280 -25.7649 -27.4897 0
M  V30 1859 C  -26.5274 -27.3761 -25.8427 0
M  V30 1860 C  -26.8946 -25.0009 -27.3100 0
M  V30 1861 C  -27.6906 -26.6060 -25.6548 0
M  V30 1862 C  -27.8703 -25.4133 -26.3826 0
M  V30 1863 O  -28.9792 -24.6475 -26.1773 0
M  V30 1864 N  -23.2074 -27.8434 -23.9887 0
M  V30 1865 C  -23.3270 -27.6765 -22.5368 0 CFG=2
M  V30 1866 C  -22.1405 -26.9223 -21.9034 0
M  V30 1867 O  -22.3482 -26.2585 -20.8879 0
M  V30 1868 C  -23.5650 -29.0274 -21.8127 0
M  V30 1869 C  -24.8635 -29.7669 -22.1920 0
M  V30 1870 O  -25.8899 -29.0917 -22.4320 0
M  V30 1871 O  -24.8544 -31.0139 -22.0896 0 CHG=-1
M  V30 1872 N  -20.9418 -27.0036 -22.5120 0
M  V30 1873 C  -19.7427 -26.2889 -22.0611 0 CFG=2
M  V30 1874 C  -19.7566 -24.7867 -22.4118 0
M  V30 1875 O  -19.2536 -23.9901 -21.6192 0
M  V30 1876 C  -18.4751 -27.0152 -22.5717 0
M  V30 1877 O  -18.0995 -26.6609 -23.8890 0
M  V30 1878 N  -20.3282 -24.4300 -23.5772 0
M  V30 1879 C  -20.4251 -23.0553 -24.0740 0 CFG=2
M  V30 1880 C  -21.3680 -22.1986 -23.2109 0
M  V30 1881 O  -22.2906 -22.7285 -22.5955 0
M  V30 1882 C  -20.9177 -23.0820 -25.5415 0
M  V30 1883 C  -19.9091 -23.6440 -26.5723 0
M  V30 1884 C  -20.6039 -23.9200 -27.9242 0
M  V30 1885 C  -18.6269 -22.7958 -26.7127 0
M  V30 1886 N  -21.1304 -20.8798 -23.2166 0
M  V30 1887 C  -22.0246 -19.8498 -22.6724 0 CFG=2
M  V30 1888 C  -23.1323 -19.5392 -23.6965 0
M  V30 1889 O  -22.9885 -19.8835 -24.8668 0
M  V30 1890 C  -21.2605 -18.5532 -22.2937 0
M  V30 1891 C  -20.4616 -17.9020 -23.4358 0
M  V30 1892 O  -19.4692 -18.5219 -23.8768 0
M  V30 1893 O  -20.9112 -16.8412 -23.9210 0 CHG=-1
M  V30 1894 N  -24.2058 -18.8697 -23.2501 0
M  V30 1895 C  -25.3969 -18.5744 -24.0524 0 CFG=2
M  V30 1896 C  -25.1715 -17.8128 -25.3778 0
M  V30 1897 O  -25.9677 -17.9984 -26.2983 0
M  V30 1898 C  -26.4093 -17.8364 -23.1765 0
M  V30 1899 N  -24.0969 -17.0079 -25.4714 0
M  V30 1900 C  -23.7351 -16.2771 -26.6895 0 CFG=2
M  V30 1901 C  -22.9960 -17.1822 -27.7015 0
M  V30 1902 O  -23.2983 -17.1150 -28.8924 0
M  V30 1903 C  -22.8468 -15.0348 -26.3974 0
M  V30 1904 C  -22.5879 -14.1924 -27.6618 0
M  V30 1905 C  -23.4367 -14.1439 -25.2884 0
M  V30 1906 N  -22.0851 -18.0458 -27.2138 0
M  V30 1907 C  -21.4412 -19.1030 -28.0040 0 CFG=2
M  V30 1908 C  -22.4441 -20.1990 -28.4333 0
M  V30 1909 O  -22.3234 -20.6929 -29.5523 0
M  V30 1910 C  -20.2961 -19.7511 -27.1964 0
M  V30 1911 C  -18.8981 -19.1047 -27.2614 0
M  V30 1912 C  -18.7946 -17.5822 -27.1073 0
M  V30 1913 N  -17.3811 -17.1553 -27.0473 0
M  V30 1914 C  -16.6725 -16.6920 -25.9990 0
M  V30 1915 N  -17.1921 -16.5644 -24.7709 0
M  V30 1916 N  -15.3965 -16.3384 -26.1955 0 CHG=1
M  V30 1917 N  -23.4171 -20.5465 -27.5676 0
M  V30 1918 C  -24.5233 -21.4637 -27.8692 0 CFG=2
M  V30 1919 C  -25.4265 -20.9365 -28.9947 0
M  V30 1920 O  -25.8938 -21.7473 -29.7894 0
M  V30 1921 C  -25.3967 -21.7114 -26.6221 0
M  V30 1922 C  -24.7613 -22.5718 -25.5195 0
M  V30 1923 C  -25.7498 -22.8179 -24.3645 0
M  V30 1924 N  -25.0937 -23.3939 -23.1828 0
M  V30 1925 C  -25.6516 -23.7657 -22.0173 0
M  V30 1926 N  -26.9742 -23.6976 -21.8061 0
M  V30 1927 N  -24.8577 -24.2163 -21.0383 0 CHG=1
M  V30 1928 N  -25.6347 -19.6077 -29.0589 0
M  V30 1929 C  -26.3802 -18.9379 -30.1254 0 CFG=2
M  V30 1930 C  -25.6971 -19.0732 -31.4941 0
M  V30 1931 O  -26.3857 -19.3621 -32.4692 0
M  V30 1932 C  -26.5886 -17.4598 -29.7691 0
M  V30 1933 N  -24.3616 -18.9123 -31.5265 0
M  V30 1934 C  -23.5220 -19.1270 -32.7060 0 CFG=2
M  V30 1935 C  -23.4231 -20.6053 -33.1305 0
M  V30 1936 O  -23.2850 -20.8671 -34.3231 0
M  V30 1937 C  -22.1301 -18.5340 -32.4467 0
M  V30 1938 N  -23.5175 -21.5451 -32.1719 0
M  V30 1939 C  -23.5614 -22.9860 -32.4386 0 CFG=2
M  V30 1940 C  -24.9157 -23.4117 -33.0254 0
M  V30 1941 O  -24.9281 -24.1804 -33.9855 0
M  V30 1942 C  -23.2048 -23.7778 -31.1607 0
M  V30 1943 C  -22.9539 -25.2872 -31.3991 0
M  V30 1944 C  -21.6811 -25.5304 -32.2365 0
M  V30 1945 C  -22.9238 -26.0668 -30.0708 0
M  V30 1946 N  -26.0182 -22.8599 -32.4843 0
M  V30 1947 C  -27.3692 -22.9758 -33.0400 0 CFG=2
M  V30 1948 C  -27.4315 -22.4211 -34.4774 0
M  V30 1949 O  -27.9835 -23.0922 -35.3423 0
M  V30 1950 C  -28.4375 -22.2847 -32.1324 0 CFG=2
M  V30 1951 C  -28.6528 -23.0930 -30.8302 0
M  V30 1952 C  -29.8075 -22.0097 -32.7964 0
M  V30 1953 C  -29.2725 -22.2693 -29.6905 0
M  V30 1954 N  -26.7740 -21.2739 -34.7170 0
M  V30 1955 C  -26.5992 -20.6461 -36.0269 0 CFG=2
M  V30 1956 C  -25.9789 -21.5777 -37.0832 0
M  V30 1957 O  -26.5376 -21.6911 -38.1731 0
M  V30 1958 C  -25.7483 -19.3687 -35.8735 0
M  V30 1959 C  -26.0489 -18.2895 -36.9013 0
M  V30 1960 O  -26.3886 -18.5700 -38.0460 0
M  V30 1961 N  -25.8952 -17.0354 -36.4935 0
M  V30 1962 N  -24.8745 -22.2618 -36.7344 0
M  V30 1963 C  -24.2431 -23.2644 -37.5966 0 CFG=2
M  V30 1964 C  -25.1664 -24.4532 -37.9194 0
M  V30 1965 O  -25.1625 -24.9142 -39.0608 0
M  V30 1966 C  -22.9264 -23.7707 -36.9752 0
M  V30 1967 C  -21.7886 -22.7410 -36.9826 0
M  V30 1968 S  -20.1726 -23.4203 -36.5164 0
M  V30 1969 C  -19.7792 -24.4032 -37.9884 0
M  V30 1970 N  -25.9384 -24.9155 -36.9190 0
M  V30 1971 C  -26.8744 -26.0395 -37.0317 0 CFG=2
M  V30 1972 C  -28.0834 -25.7389 -37.9415 0
M  V30 1973 O  -28.5623 -26.6545 -38.6083 0
M  V30 1974 C  -27.3312 -26.5292 -35.6226 0
M  V30 1975 C  -28.5641 -27.4591 -35.5884 0
M  V30 1976 C  -26.1623 -27.2265 -34.9041 0
M  V30 1977 N  -28.5116 -24.4670 -38.0059 0
M  V30 1978 C  -29.5512 -23.9832 -38.9179 0 CFG=2
M  V30 1979 C  -29.1935 -24.0564 -40.4161 0
M  V30 1980 O  -30.1099 -24.1730 -41.2291 0
M  V30 1981 C  -29.9839 -22.5594 -38.5037 0
M  V30 1982 C  -31.2416 -22.5104 -37.6592 0
M  V30 1983 C  -31.1918 -22.7720 -36.2756 0
M  V30 1984 C  -32.4991 -22.3601 -38.2796 0
M  V30 1985 C  -32.3555 -22.7874 -35.5257 0
M  V30 1986 C  -33.6556 -22.3882 -37.5147 0
M  V30 1987 C  -33.5807 -22.5829 -36.1436 0
M  V30 1988 N  -27.8936 -24.0052 -40.7575 0
M  V30 1989 C  -27.4146 -24.0752 -42.1390 0 CFG=2
M  V30 1990 C  -27.2349 -25.5192 -42.6320 0
M  V30 1991 O  -27.7259 -25.8516 -43.7099 0
M  V30 1992 C  -26.1196 -23.2452 -42.2682 0
M  V30 1993 C  -25.4857 -23.2136 -43.6770 0
M  V30 1994 C  -24.4051 -22.1358 -43.8280 0
M  V30 1995 O  -24.0111 -21.4846 -42.8621 0
M  V30 1996 N  -23.9177 -21.9400 -45.0549 0
M  V30 1997 N  -26.4958 -26.3241 -41.8540 0
M  V30 1998 C  -25.9392 -27.6089 -42.2920 0 CFG=2
M  V30 1999 C  -26.6792 -28.8241 -41.7105 0
M  V30 2000 O  -26.3788 -29.9486 -42.1130 0
M  V30 2001 C  -24.4481 -27.6745 -41.8869 0
M  V30 2002 C  -23.6543 -26.3773 -42.0935 0
M  V30 2003 S  -21.9278 -26.4945 -41.5848 0
M  V30 2004 C  -21.6460 -24.7566 -41.1787 0
M  V30 2005 N  -27.5824 -28.5928 -40.7432 0
M  V30 2006 C  -28.1778 -29.6337 -39.9092 0
M  V30 2007 C  -27.1779 -30.0879 -38.8331 0
M  V30 2008 O  -26.0320 -29.6371 -38.7815 0
M  V30 2009 N  -27.6256 -31.0082 -37.9677 0
M  V30 2010 C  -26.8263 -31.5945 -36.8874 0 CFG=2
M  V30 2011 C  -25.6360 -32.4163 -37.4103 0
M  V30 2012 O  -24.5367 -32.2888 -36.8752 0
M  V30 2013 C  -27.7191 -32.4978 -36.0212 0
M  V30 2014 C  -28.9653 -31.8077 -35.4282 0
M  V30 2015 C  -29.9889 -32.7800 -34.8201 0
M  V30 2016 O  -29.6397 -33.9524 -34.5508 0
M  V30 2017 O  -31.1395 -32.3265 -34.6461 0 CHG=-1
M  V30 2018 N  -25.8857 -33.2228 -38.4573 0
M  V30 2019 C  -24.9076 -34.0887 -39.1183 0 CFG=2
M  V30 2020 C  -23.7599 -33.3075 -39.7901 0
M  V30 2021 O  -22.6249 -33.7847 -39.7788 0
M  V30 2022 C  -25.5920 -34.9680 -40.2022 0 CFG=2
M  V30 2023 O  -26.6618 -35.6858 -39.6178 0
M  V30 2024 C  -24.6780 -35.9851 -40.9122 0
M  V30 2025 N  -24.0723 -32.1139 -40.3261 0
M  V30 2026 C  -23.1113 -31.2421 -40.9916 0
M  V30 2027 C  -22.1688 -30.5741 -39.9817 0
M  V30 2028 O  -20.9628 -30.5488 -40.2235 0
M  V30 2029 N  -22.6976 -30.0695 -38.8500 0
M  V30 2030 C  -21.8999 -29.4022 -37.8112 0 CFG=2
M  V30 2031 C  -21.0930 -30.3909 -36.9415 0
M  V30 2032 O  -20.0176 -30.0249 -36.4689 0
M  V30 2033 C  -22.7629 -28.5028 -36.8871 0
M  V30 2034 C  -21.9592 -27.7202 -35.8220 0
M  V30 2035 C  -23.5367 -27.4764 -37.7178 0
M  V30 2036 N  -21.5785 -31.6366 -36.7976 0
M  V30 2037 C  -20.8821 -32.7283 -36.1095 0 CFG=2
M  V30 2038 C  -19.5780 -33.1934 -36.7938 0
M  V30 2039 O  -18.7857 -33.8735 -36.1424 0
M  V30 2040 C  -21.8556 -33.9035 -35.9298 0
M  V30 2041 N  -19.3665 -32.8133 -38.0684 0
M  V30 2042 C  -18.1708 -33.1409 -38.8470 0
M  V30 2043 C  -16.9696 -32.2399 -38.5082 0
M  V30 2044 O  -15.8436 -32.6007 -38.8481 0
M  V30 2045 N  -17.1867 -31.1028 -37.8221 0
M  V30 2046 C  -16.1560 -30.1537 -37.3880 0 CFG=2
M  V30 2047 C  -15.4857 -30.6072 -36.0740 0
M  V30 2048 O  -15.3108 -29.7894 -35.1770 0
M  V30 2049 C  -16.7863 -28.7469 -37.2340 0
M  V30 2050 C  -17.2826 -28.0628 -38.4928 0
M  V30 2051 C  -18.4679 -28.4967 -39.1161 0
M  V30 2052 C  -16.5380 -27.0219 -39.0869 0
M  V30 2053 C  -18.9247 -27.8628 -40.2598 0
M  V30 2054 C  -17.0221 -26.3878 -40.2231 0
M  V30 2055 C  -18.2134 -26.8026 -40.8046 0
M  V30 2056 N  -15.1378 -31.8993 -35.9527 0
M  V30 2057 C  -14.6423 -32.5263 -34.7221 0 CFG=2
M  V30 2058 C  -13.3504 -31.9006 -34.1523 0
M  V30 2059 O  -13.1905 -31.9067 -32.9318 0
M  V30 2060 C  -14.4020 -34.0462 -34.9196 0 CFG=2
M  V30 2061 O  -13.3358 -34.3151 -35.8133 0
M  V30 2062 C  -15.6517 -34.7954 -35.4015 0
M  V30 2063 N  -12.4924 -31.3323 -35.0195 0
M  V30 2064 C  -11.3056 -30.5881 -34.6025 0 CFG=2
M  V30 2065 C  -11.6735 -29.1961 -34.0497 0
M  V30 2066 O  -11.1454 -28.8192 -33.0057 0
M  V30 2067 C  -10.2879 -30.4853 -35.7699 0
M  V30 2068 C  -8.8125 -30.5276 -35.3419 0
M  V30 2069 O  -8.4702 -30.9479 -34.2386 0
M  V30 2070 N  -7.9159 -30.1073 -36.2330 0
M  V30 2071 N  -12.6057 -28.4859 -34.7137 0
M  V30 2072 C  -13.0875 -27.1604 -34.3025 0 CFG=2
M  V30 2073 C  -13.9285 -27.2218 -33.0113 0
M  V30 2074 O  -13.7750 -26.3460 -32.1648 0
M  V30 2075 C  -13.9339 -26.5068 -35.4166 0
M  V30 2076 O  -13.4252 -26.7482 -36.7123 0
M  V30 2077 N  -14.7866 -28.2511 -32.8746 0
M  V30 2078 C  -15.6373 -28.4898 -31.7035 0 CFG=2
M  V30 2079 C  -14.8247 -28.8531 -30.4504 0
M  V30 2080 O  -15.2124 -28.4450 -29.3559 0
M  V30 2081 C  -16.6739 -29.6009 -31.9974 0
M  V30 2082 C  -17.7771 -29.2430 -33.0186 0
M  V30 2083 C  -18.6255 -30.4866 -33.3372 0
M  V30 2084 C  -18.6620 -28.0606 -32.5737 0
M  V30 2085 N  -13.7014 -29.5730 -30.6302 0
M  V30 2086 C  -12.7447 -29.8660 -29.5636 0 CFG=2
M  V30 2087 C  -12.0167 -28.5994 -29.0709 0
M  V30 2088 O  -11.8285 -28.4663 -27.8637 0
M  V30 2089 N  -11.6691 -27.6812 -29.9938 0
M  V30 2090 C  -11.0725 -26.3759 -29.6850 0 CFG=2
M  V30 2091 C  -12.0278 -25.4372 -28.9245 0
M  V30 2092 O  -11.5686 -24.7691 -28.0002 0
M  V30 2093 C  -10.5673 -25.6870 -30.9692 0
M  V30 2094 C  -9.3820 -26.3806 -31.6522 0
M  V30 2095 S  -9.1343 -25.8150 -33.3578 0
M  V30 2096 C  -7.9289 -27.0426 -33.9191 0
M  V30 2097 N  -13.3240 -25.4168 -29.2950 0
M  V30 2098 C  -14.3660 -24.6322 -28.6162 0 CFG=2
M  V30 2099 C  -14.6197 -25.1021 -27.1763 0
M  V30 2100 O  -14.7770 -24.2609 -26.2916 0
M  V30 2101 C  -15.6917 -24.6763 -29.4107 0
M  V30 2102 C  -15.6990 -23.8686 -30.7249 0
M  V30 2103 C  -17.0410 -24.0534 -31.4617 0
M  V30 2104 C  -15.3661 -22.3790 -30.5147 0
M  V30 2105 N  -14.6250 -26.4297 -26.9711 0
M  V30 2106 C  -14.7872 -27.0677 -25.6656 0 CFG=2
M  V30 2107 C  -13.5804 -26.8276 -24.7345 0
M  V30 2108 O  -13.7702 -26.6760 -23.5284 0
M  V30 2109 C  -15.0876 -28.5601 -25.9014 0
M  V30 2110 C  -15.4277 -29.3542 -24.6261 0
M  V30 2111 C  -16.1719 -30.6596 -24.9189 0
M  V30 2112 O  -17.1099 -31.0038 -24.2072 0
M  V30 2113 N  -15.7687 -31.3948 -25.9583 0
M  V30 2114 N  -12.3766 -26.7428 -25.3261 0
M  V30 2115 C  -11.1193 -26.3980 -24.6608 0 CFG=2
M  V30 2116 C  -10.8795 -24.8810 -24.4988 0
M  V30 2117 O  -9.8471 -24.5086 -23.9414 0
M  V30 2118 C  -9.9603 -27.0732 -25.4198 0
M  V30 2119 C  -9.9066 -28.6013 -25.2167 0
M  V30 2120 C  -8.7608 -29.3098 -25.9520 0
M  V30 2121 O  -8.6032 -30.5179 -25.8031 0
M  V30 2122 N  -7.9561 -28.5958 -26.7437 0
M  V30 2123 N  -11.8196 -24.0373 -24.9667 0
M  V30 2124 C  -11.8293 -22.5715 -24.8410 0 CFG=2
M  V30 2125 C  -10.6638 -21.8745 -25.5790 0
M  V30 2126 O  -10.2063 -20.8163 -25.1477 0
M  V30 2127 N  -10.2160 -22.4762 -26.6909 0
M  V30 2128 C  -9.1784 -21.9581 -27.5811 0 CFG=2
M  V30 2129 C  -9.8841 -21.2544 -28.7462 0
M  V30 2130 O  -9.9887 -21.8030 -29.8444 0
M  V30 2131 C  -8.2835 -23.1335 -28.0174 0
M  V30 2132 C  -7.3482 -23.6109 -26.8938 0
M  V30 2133 C  -6.8844 -25.0630 -27.0778 0
M  V30 2134 N  -5.7472 -25.4164 -26.2086 0
M  V30 2135 C  -5.7171 -25.5778 -24.8701 0
M  V30 2136 N  -4.5626 -25.9332 -24.2939 0
M  V30 2137 N  -6.7888 -25.3947 -24.0841 0 CHG=1
M  V30 2138 N  -10.4029 -20.0564 -28.4332 0
M  V30 2139 C  -11.2974 -19.2672 -29.2774 0 CFG=2
M  V30 2140 C  -10.6314 -18.7590 -30.5618 0
M  V30 2141 O  -11.2484 -18.8493 -31.6205 0
M  V30 2142 C  -11.8763 -18.0922 -28.4649 0
M  V30 2143 C  -12.3763 -18.4186 -27.0902 0
M  V30 2144 C  -11.8043 -18.0120 -25.9343 0
M  V30 2145 C  -13.5128 -19.2500 -26.7037 0
M  V30 2146 N  -12.5180 -18.5085 -24.8647 0
M  V30 2147 C  -13.5858 -19.2777 -25.2776 0
M  V30 2148 C  -14.4950 -19.9823 -27.4109 0
M  V30 2149 C  -14.5886 -19.9821 -24.5895 0
M  V30 2150 C  -15.4971 -20.7034 -26.7313 0
M  V30 2151 C  -15.5482 -20.7020 -25.3236 0
M  V30 2152 N  -9.3902 -18.2539 -30.4444 0
M  V30 2153 C  -8.6102 -17.7132 -31.5621 0 CFG=2
M  V30 2154 C  -8.0715 -18.8129 -32.4940 0
M  V30 2155 O  -8.0171 -18.5672 -33.6986 0
M  V30 2156 C  -7.4699 -16.7473 -31.1447 0
M  V30 2157 C  -7.8709 -15.4444 -30.4207 0
M  V30 2158 O  -9.0149 -15.3314 -29.9259 0
M  V30 2159 O  -6.9712 -14.5828 -30.3098 0 CHG=-1
M  V30 2160 N  -7.7404 -20.0073 -31.9577 0
M  V30 2161 C  -7.4254 -21.1897 -32.7715 0 CFG=2
M  V30 2162 C  -8.6222 -21.6449 -33.6082 0
M  V30 2163 O  -8.4662 -21.8032 -34.8156 0
M  V30 2164 C  -6.9332 -22.3841 -31.9319 0
M  V30 2165 C  -5.4808 -22.2686 -31.4460 0
M  V30 2166 C  -4.9712 -23.6186 -30.9257 0
M  V30 2167 O  -4.4754 -24.4108 -31.7582 0
M  V30 2168 O  -5.0960 -23.8441 -29.7028 0 CHG=-1
M  V30 2169 N  -9.7829 -21.8171 -32.9505 0
M  V30 2170 C  -11.0433 -22.2030 -33.5792 0 CFG=2
M  V30 2171 C  -11.5317 -21.1916 -34.6260 0
M  V30 2172 O  -12.0578 -21.6214 -35.6440 0
M  V30 2173 C  -12.1135 -22.4220 -32.5026 0
M  V30 2174 N  -11.3220 -19.8859 -34.3860 0
M  V30 2175 C  -11.6876 -18.8067 -35.3029 0 CFG=2
M  V30 2176 C  -10.8680 -18.8070 -36.6033 0
M  V30 2177 O  -11.4508 -18.6680 -37.6787 0
M  V30 2178 C  -11.5643 -17.4601 -34.5760 0
M  V30 2179 N  -9.5438 -18.9996 -36.4795 0
M  V30 2180 C  -8.6165 -19.1353 -37.6055 0 CFG=2
M  V30 2181 C  -8.7845 -20.4851 -38.3422 0
M  V30 2182 O  -8.6200 -20.5192 -39.5594 0
M  V30 2183 C  -7.1416 -18.9466 -37.1341 0
M  V30 2184 C  -6.0583 -19.3276 -38.1662 0
M  V30 2185 C  -6.8989 -17.4981 -36.6676 0
M  V30 2186 N  -9.1529 -21.5514 -37.6105 0
M  V30 2187 C  -9.4446 -22.8866 -38.1396 0 CFG=2
M  V30 2188 C  -10.7862 -22.9333 -38.9053 0
M  V30 2189 O  -10.8490 -23.5741 -39.9521 0
M  V30 2190 C  -9.3578 -23.8985 -36.9693 0
M  V30 2191 C  -9.7317 -25.3351 -37.3378 0
M  V30 2192 O  -10.8380 -25.7753 -37.0432 0
M  V30 2193 N  -8.8219 -26.0572 -37.9917 0
M  V30 2194 N  -11.8197 -22.2374 -38.4008 0
M  V30 2195 C  -13.1277 -22.0952 -39.0502 0 CFG=2
M  V30 2196 C  -13.0731 -21.2400 -40.3291 0
M  V30 2197 O  -13.8990 -21.4545 -41.2154 0
M  V30 2198 C  -14.1447 -21.4969 -38.0541 0
M  V30 2199 C  -14.7482 -22.5034 -37.0464 0
M  V30 2200 C  -15.4805 -21.7717 -35.8986 0
M  V30 2201 C  -15.6377 -23.5654 -37.7286 0
M  V30 2202 N  -12.0967 -20.3191 -40.4239 0
M  V30 2203 C  -11.8171 -19.5455 -41.6347 0 CFG=2
M  V30 2204 C  -11.2077 -20.3949 -42.7688 0
M  V30 2205 O  -11.4067 -20.0513 -43.9334 0
M  V30 2206 C  -10.9070 -18.3609 -41.2796 0
M  V30 2207 N  -10.5185 -21.4978 -42.4162 0
M  V30 2208 C  -9.9547 -22.4780 -43.3526 0 CFG=2
M  V30 2209 C  -10.9953 -23.4693 -43.9174 0
M  V30 2210 O  -10.6482 -24.2253 -44.8247 0
M  V30 2211 C  -8.7966 -23.2420 -42.6709 0
M  V30 2212 C  -7.5844 -22.3625 -42.3261 0
M  V30 2213 C  -6.5130 -23.1292 -41.5372 0
M  V30 2214 C  -5.3215 -22.2391 -41.1528 0
M  V30 2215 N  -4.2868 -22.9963 -40.4262 0 CHG=1
M  V30 2216 N  -12.2352 -23.4615 -43.3939 0
M  V30 2217 C  -13.3330 -24.3204 -43.8449 0 CFG=2
M  V30 2218 C  -13.9011 -23.8798 -45.2101 0
M  V30 2219 O  -13.8489 -22.6960 -45.5480 0
M  V30 2220 C  -14.4357 -24.3109 -42.7639 0
M  V30 2221 O  -15.4608 -25.2431 -43.0513 0
M  V30 2222 N  -14.5044 -24.8422 -45.9325 0
M  V30 2223 C  -15.3203 -24.6051 -47.1294 0 CFG=2
M  V30 2224 C  -16.5786 -23.7623 -46.8415 0
M  V30 2225 O  -17.0059 -23.0252 -47.7273 0
M  V30 2226 C  -15.6959 -25.9587 -47.7755 0
M  V30 2227 C  -16.4770 -25.8400 -49.1068 0
M  V30 2228 C  -16.9206 -27.1804 -49.7170 0
M  V30 2229 N  -18.0451 -27.7926 -48.9792 0
M  V30 2230 C  -18.9642 -28.6562 -49.4552 0
M  V30 2231 N  -18.9331 -29.1122 -50.7172 0
M  V30 2232 N  -19.9443 -29.0737 -48.6432 0 CHG=1
M  V30 2233 N  -17.1271 -23.8684 -45.6164 0
M  V30 2234 C  -18.2451 -23.0681 -45.1083 0 CFG=2
M  V30 2235 C  -18.0285 -21.5478 -45.2318 0
M  V30 2236 O  -18.9609 -20.8417 -45.6190 0
M  V30 2237 C  -18.5453 -23.4870 -43.6534 0
M  V30 2238 C  -19.4040 -22.5575 -42.8478 0
M  V30 2239 C  -20.6492 -22.1500 -43.1791 0
M  V30 2240 C  -19.0816 -21.8838 -41.5942 0
M  V30 2241 N  -21.1200 -21.2792 -42.2211 0
M  V30 2242 C  -20.1972 -21.0756 -41.2171 0
M  V30 2243 C  -17.9569 -21.8694 -40.7359 0
M  V30 2244 C  -20.2008 -20.2981 -40.0468 0
M  V30 2245 C  -17.9513 -21.0935 -39.5606 0
M  V30 2246 C  -19.0649 -20.3062 -39.2182 0
M  V30 2247 N  -16.7965 -21.0900 -44.9466 0
M  V30 2248 C  -16.3771 -19.7084 -45.1630 0 CFG=2
M  V30 2249 C  -16.4469 -19.3060 -46.6468 0
M  V30 2250 O  -16.8974 -18.2064 -46.9360 0
M  V30 2251 C  -14.9777 -19.4789 -44.5473 0
M  V30 2252 C  -14.3969 -18.0885 -44.7554 0
M  V30 2253 C  -13.7174 -17.7788 -45.9531 0
M  V30 2254 C  -14.5446 -17.0973 -43.7621 0
M  V30 2255 C  -13.2174 -16.4833 -46.1731 0
M  V30 2256 C  -14.0202 -15.8063 -43.9721 0
M  V30 2257 C  -13.3619 -15.4978 -45.1801 0
M  V30 2258 O  -12.8479 -14.2521 -45.3881 0
M  V30 2259 N  -16.0190 -20.1918 -47.5588 0
M  V30 2260 C  -16.0068 -19.9294 -48.9993 0 CFG=2
M  V30 2261 C  -17.4123 -19.8843 -49.6348 0
M  V30 2262 O  -17.6107 -19.1142 -50.5738 0
M  V30 2263 C  -15.1026 -20.9696 -49.7050 0
M  V30 2264 C  -14.2327 -20.3731 -50.8156 0
M  V30 2265 O  -14.3112 -20.8030 -51.9630 0
M  V30 2266 N  -13.3861 -19.3960 -50.4814 0
M  V30 2267 N  -18.3587 -20.6768 -49.0999 0
M  V30 2268 C  -19.7642 -20.6978 -49.5154 0 CFG=2
M  V30 2269 C  -20.5178 -19.4003 -49.1867 0
M  V30 2270 O  -21.2400 -18.8951 -50.0449 0
M  V30 2271 C  -20.4880 -21.8965 -48.8724 0
M  V30 2272 C  -20.0832 -23.2568 -49.4657 0
M  V30 2273 C  -20.8157 -24.4324 -48.8137 0
M  V30 2274 O  -21.5709 -24.2733 -47.8561 0
M  V30 2275 N  -20.5916 -25.6347 -49.3420 0
M  V30 2276 N  -20.3354 -18.9028 -47.9532 0
M  V30 2277 C  -20.9945 -17.7069 -47.4295 0 CFG=2
M  V30 2278 C  -19.9996 -16.9444 -46.5179 0
M  V30 2279 O  -20.0563 -17.0998 -45.2958 0
M  V30 2280 C  -22.2943 -18.0665 -46.6429 0 CFG=2
M  V30 2281 O  -22.0634 -19.0395 -45.6337 0
M  V30 2282 C  -23.4312 -18.5858 -47.5350 0
M  V30 2283 N  -19.0788 -16.1465 -47.1200 0
M  V30 2284 C  -18.0646 -15.3815 -46.3636 0 CFG=2
M  V30 2285 C  -18.6053 -14.3846 -45.3313 0
M  V30 2286 O  -18.0939 -14.3660 -44.2138 0
M  V30 2287 C  -17.2270 -14.6748 -47.4452 0
M  V30 2288 C  -17.4260 -15.5019 -48.7022 0
M  V30 2289 C  -18.8555 -16.0076 -48.5642 0
M  V30 2290 N  -19.6149 -13.5847 -45.7148 0
M  V30 2291 C  -20.1561 -12.4930 -44.8948 0 CFG=2
M  V30 2292 C  -20.8129 -13.0005 -43.6039 0
M  V30 2293 O  -20.5199 -12.4664 -42.5347 0
M  V30 2294 C  -21.1549 -11.6495 -45.7144 0
M  V30 2295 C  -20.5164 -10.9966 -46.9427 0
M  V30 2296 O  -19.6488 -10.1363 -46.8091 0
M  V30 2297 N  -20.9463 -11.4000 -48.1393 0
M  V30 2298 N  -21.6499 -14.0438 -43.7298 0
M  V30 2299 C  -22.2847 -14.7403 -42.6135 0 CFG=2
M  V30 2300 C  -21.2724 -15.4368 -41.6929 0
M  V30 2301 O  -21.3712 -15.2777 -40.4759 0
M  V30 2302 C  -23.3162 -15.7380 -43.1709 0
M  V30 2303 C  -23.9781 -16.6344 -42.1100 0
M  V30 2304 C  -24.9448 -17.6397 -42.7326 0
M  V30 2305 N  -25.4438 -18.5815 -41.7161 0
M  V30 2306 C  -26.6450 -19.1830 -41.6866 0
M  V30 2307 N  -27.5671 -18.9922 -42.6363 0
M  V30 2308 N  -26.9514 -19.9939 -40.6729 0 CHG=1
M  V30 2309 N  -20.3415 -16.2022 -42.2927 0
M  V30 2310 C  -19.3347 -16.9855 -41.5779 0 CFG=2
M  V30 2311 C  -18.4119 -16.1283 -40.7053 0
M  V30 2312 O  -18.1220 -16.5457 -39.5885 0
M  V30 2313 C  -18.5270 -17.8393 -42.5636 0
M  V30 2314 N  -18.0410 -14.9286 -41.1909 0
M  V30 2315 C  -17.3073 -13.9111 -40.4367 0 CFG=2
M  V30 2316 C  -17.9983 -13.4835 -39.1345 0
M  V30 2317 O  -17.3054 -13.3870 -38.1261 0
M  V30 2318 C  -17.0342 -12.6771 -41.3179 0
M  V30 2319 C  -15.8830 -12.8704 -42.3119 0
M  V30 2320 C  -15.6756 -11.6293 -43.1886 0
M  V30 2321 C  -14.5672 -11.8348 -44.2270 0
M  V30 2322 N  -14.2746 -10.5986 -44.9718 0 CHG=1
M  V30 2323 N  -19.3266 -13.2644 -39.1620 0
M  V30 2324 C  -20.1028 -12.8837 -37.9779 0 CFG=2
M  V30 2325 C  -20.2011 -13.9993 -36.9314 0
M  V30 2326 O  -20.0510 -13.7071 -35.7468 0
M  V30 2327 C  -21.5184 -12.4065 -38.3518 0
M  V30 2328 C  -21.5490 -11.1530 -39.2414 0
M  V30 2329 C  -22.9532 -10.5297 -39.3630 0
M  V30 2330 N  -23.8624 -11.3178 -40.2157 0
M  V30 2331 C  -23.9632 -11.2488 -41.5573 0
M  V30 2332 N  -24.8556 -12.0183 -42.1885 0
M  V30 2333 N  -23.1999 -10.4259 -42.2903 0 CHG=1
M  V30 2334 N  -20.4318 -15.2430 -37.3818 0
M  V30 2335 C  -20.5170 -16.4256 -36.5239 0 CFG=2
M  V30 2336 C  -19.1520 -16.7677 -35.8856 0
M  V30 2337 O  -19.1087 -17.0474 -34.6886 0
M  V30 2338 C  -21.0652 -17.6495 -37.3117 0
M  V30 2339 C  -21.0629 -18.9770 -36.5272 0
M  V30 2340 C  -22.4943 -17.3865 -37.8194 0
M  V30 2341 N  -18.0673 -16.6646 -36.6753 0
M  V30 2342 C  -16.6744 -16.7944 -36.2366 0 CFG=2
M  V30 2343 C  -16.2526 -15.6924 -35.2428 0
M  V30 2344 O  -15.5764 -16.0072 -34.2651 0
M  V30 2345 C  -15.6965 -16.8252 -37.4560 0 CFG=2
M  V30 2346 C  -15.8225 -18.1741 -38.2003 0
M  V30 2347 C  -14.2109 -16.5511 -37.1323 0
M  V30 2348 C  -15.2154 -18.1793 -39.6125 0
M  V30 2349 N  -16.6814 -14.4406 -35.4860 0
M  V30 2350 C  -16.4440 -13.3015 -34.5946 0 CFG=2
M  V30 2351 C  -17.2309 -13.4194 -33.2735 0
M  V30 2352 O  -16.7012 -13.0109 -32.2440 0
M  V30 2353 C  -16.7865 -11.9438 -35.2714 0 CFG=2
M  V30 2354 O  -15.8917 -11.7403 -36.3466 0
M  V30 2355 C  -16.7026 -10.6888 -34.3797 0
M  V30 2356 N  -18.4362 -14.0153 -33.3021 0
M  V30 2357 C  -19.2364 -14.2921 -32.1047 0 CFG=2
M  V30 2358 C  -18.6316 -15.4208 -31.2438 0
M  V30 2359 O  -18.6446 -15.2950 -30.0205 0
M  V30 2360 C  -20.7043 -14.6482 -32.4565 0 CFG=2
M  V30 2361 O  -21.2744 -13.5444 -33.1274 0
M  V30 2362 C  -21.6180 -14.9571 -31.2566 0
M  V30 2363 N  -18.0573 -16.4584 -31.8822 0
M  V30 2364 C  -17.2649 -17.4968 -31.2135 0 CFG=2
M  V30 2365 C  -15.9511 -16.9834 -30.6047 0
M  V30 2366 O  -15.5755 -17.4386 -29.5249 0
M  V30 2367 C  -16.9774 -18.6697 -32.1755 0
M  V30 2368 C  -18.1143 -19.6562 -32.3620 0
M  V30 2369 C  -18.6802 -20.3130 -31.2481 0
M  V30 2370 C  -18.5459 -20.0084 -33.6569 0
M  V30 2371 C  -19.6672 -21.2695 -31.4301 0
M  V30 2372 C  -19.5349 -20.9665 -33.8168 0
M  V30 2373 C  -20.0835 -21.5996 -32.7111 0
M  V30 2374 N  -15.2895 -16.0470 -31.3015 0
M  V30 2375 C  -14.0448 -15.4206 -30.8702 0 CFG=2
M  V30 2376 C  -14.2547 -14.4579 -29.6903 0
M  V30 2377 O  -13.5893 -14.6119 -28.6670 0
M  V30 2378 C  -13.3687 -14.7497 -32.0832 0
M  V30 2379 C  -12.0616 -13.9962 -31.7597 0
M  V30 2380 C  -11.2313 -13.6268 -33.0026 0
M  V30 2381 N  -11.9114 -12.6539 -33.8792 0
M  V30 2382 C  -11.8938 -11.3104 -33.7913 0
M  V30 2383 N  -12.6051 -10.5982 -34.6750 0
M  V30 2384 N  -11.1927 -10.6632 -32.8473 0 CHG=1
M  V30 2385 N  -15.1578 -13.4811 -29.8709 0
M  V30 2386 C  -15.3299 -12.3498 -28.9585 0 CFG=2
M  V30 2387 C  -16.2737 -12.6514 -27.7760 0
M  V30 2388 O  -16.0373 -12.1436 -26.6810 0
M  V30 2389 C  -15.8598 -11.0783 -29.6829 0 CFG=2
M  V30 2390 O  -15.2374 -10.9252 -30.9456 0
M  V30 2391 C  -15.5741 -9.7751 -28.9173 0
M  V30 2392 N  -17.3070 -13.4820 -28.0013 0
M  V30 2393 C  -18.2820 -13.8621 -26.9755 0
M  V30 2394 C  -19.3443 -12.7876 -26.7136 0
M  V30 2395 O  -20.0477 -12.8760 -25.7084 0
M  V30 2396 N  -19.4720 -11.7958 -27.6062 0
M  V30 2397 C  -20.4941 -10.7565 -27.5584 0 CFG=2
M  V30 2398 C  -20.9486 -10.4253 -28.9940 0
M  V30 2399 O  -20.3047 -10.8258 -29.9673 0
M  V30 2400 C  -19.9937 -9.4897 -26.8072 0 CFG=2
M  V30 2401 O  -21.0452 -8.5675 -26.5825 0
M  V30 2402 C  -18.8709 -8.7301 -27.5244 0
M  V30 2403 N  -22.0830 -9.7226 -29.0827 0
M  V30 2404 C  -22.8644 -9.5007 -30.2936 0 CFG=2
M  V30 2405 C  -22.3905 -8.2911 -31.1272 0
M  V30 2406 O  -23.2356 -7.6412 -31.7391 0
M  V30 2407 C  -24.3505 -9.3515 -29.8958 0
M  V30 2408 C  -24.8999 -10.2794 -28.8508 0
M  V30 2409 C  -24.7663 -10.1042 -27.5154 0
M  V30 2410 C  -25.6297 -11.5342 -29.0168 0
M  V30 2411 N  -25.3460 -11.1589 -26.8463 0
M  V30 2412 C  -25.8955 -12.0718 -27.7199 0
M  V30 2413 C  -26.1067 -12.2737 -30.1251 0
M  V30 2414 C  -26.5804 -13.2829 -27.5317 0
M  V30 2415 C  -26.8251 -13.4735 -29.9436 0
M  V30 2416 C  -27.0545 -13.9851 -28.6522 0
M  V30 2417 N  -21.0766 -7.9944 -31.1606 0
M  V30 2418 C  -20.4991 -6.8825 -31.9395 0 CFG=2
M  V30 2419 C  -20.7337 -7.0078 -33.4549 0
M  V30 2420 O  -20.9998 -5.9958 -34.1024 0
M  V30 2421 C  -18.9913 -6.6432 -31.6674 0
M  V30 2422 C  -18.6015 -6.2317 -30.2365 0
M  V30 2423 O  -19.4889 -5.8105 -29.4599 0
M  V30 2424 O  -17.3789 -6.2437 -29.9739 0 CHG=-1
M  V30 2425 N  -20.6785 -8.2438 -33.9773 0
M  V30 2426 C  -20.9867 -8.5680 -35.3696 0 CFG=2
M  V30 2427 C  -22.4862 -8.4774 -35.7186 0
M  V30 2428 O  -22.8105 -8.2816 -36.8891 0
M  V30 2429 C  -20.4567 -9.9757 -35.6585 0
M  V30 2430 N  -23.3573 -8.6157 -34.7050 0
M  V30 2431 C  -24.8184 -8.5933 -34.8165 0 CFG=2
M  V30 2432 C  -25.4447 -7.3160 -34.2360 0
M  V30 2433 O  -26.6621 -7.2918 -34.0491 0
M  V30 2434 C  -25.3816 -9.8576 -34.1312 0
M  V30 2435 C  -25.0921 -11.1230 -34.9071 0
M  V30 2436 C  -25.7837 -11.3564 -36.1114 0
M  V30 2437 C  -24.1274 -12.0480 -34.4573 0
M  V30 2438 C  -25.5042 -12.5021 -36.8720 0
M  V30 2439 C  -23.8454 -13.1939 -35.2270 0
M  V30 2440 C  -24.5261 -13.4162 -36.4375 0
M  V30 2441 O  -24.2268 -14.5124 -37.1873 0
M  V30 2442 N  -24.6291 -6.2799 -33.9663 0
M  V30 2443 C  -25.0773 -5.0207 -33.3766 0 CFG=2
M  V30 2444 C  -26.0674 -4.2911 -34.2971 0
M  V30 2445 O  -25.7976 -4.1161 -35.4857 0
M  V30 2446 C  -23.8571 -4.1460 -33.0079 0
M  V30 2447 C  -24.1921 -2.8109 -32.2931 0
M  V30 2448 C  -24.9772 -3.0238 -30.9787 0
M  V30 2449 C  -22.9179 -1.9675 -32.0788 0
M  V30 2450 N  -27.1951 -3.8928 -33.7016 0
M  V30 2451 C  -28.2877 -3.1886 -34.3588 0 CFG=2
M  V30 2452 C  -28.9525 -2.2340 -33.3505 0
M  V30 2453 O  -28.3934 -1.9674 -32.2841 0
M  V30 2454 C  -29.2460 -4.1988 -35.0638 0
M  V30 2455 C  -30.0624 -5.1339 -34.1564 0
M  V30 2456 O  -29.9884 -5.0667 -32.9344 0
M  V30 2457 N  -30.8681 -6.0080 -34.7603 0
M  V30 2458 N  -30.1457 -1.7442 -33.7107 0
M  V30 2459 C  -31.0016 -0.8899 -32.8817 0 CFG=2
M  V30 2460 C  -31.4648 -1.5908 -31.5911 0
M  V30 2461 O  -31.4310 -0.9780 -30.5236 0
M  V30 2462 C  -32.2313 -0.3695 -33.6693 0
M  V30 2463 C  -31.9079 0.1899 -35.0665 0
M  V30 2464 O  -30.9518 0.9913 -35.1689 0
M  V30 2465 O  -32.6712 -0.1365 -36.0016 0 CHG=-1
M  V30 2466 N  -31.8672 -2.8661 -31.7227 0
M  V30 2467 C  -32.3884 -3.6989 -30.6425 0 CFG=2
M  V30 2468 C  -31.3047 -4.1065 -29.6393 0
M  V30 2469 O  -31.4930 -3.8868 -28.4487 0
M  V30 2470 C  -33.0973 -4.9451 -31.2073 0
M  V30 2471 C  -34.2064 -4.6686 -32.1899 0
M  V30 2472 N  -35.5335 -4.9486 -31.9176 0
M  V30 2473 C  -34.1927 -4.1647 -33.4723 0
M  V30 2474 C  -36.2415 -4.5960 -32.9921 0
M  V30 2475 N  -35.4942 -4.1069 -33.9743 0
M  V30 2476 N  -30.1921 -4.6753 -30.1311 0
M  V30 2477 C  -29.0838 -5.1920 -29.3247 0 CFG=2
M  V30 2478 C  -28.3365 -4.0942 -28.5457 0
M  V30 2479 O  -27.8567 -4.3826 -27.4495 0
M  V30 2480 C  -28.1239 -6.0215 -30.2109 0
M  V30 2481 C  -28.5299 -7.5049 -30.3920 0
M  V30 2482 C  -29.8419 -7.7316 -31.1603 0
M  V30 2483 C  -27.4053 -8.3324 -31.0284 0
M  V30 2484 N  -28.3073 -2.8576 -29.0790 0
M  V30 2485 C  -27.8714 -1.6637 -28.3520 0 CFG=2
M  V30 2486 C  -28.8022 -1.3588 -27.1644 0
M  V30 2487 O  -28.3076 -1.2042 -26.0506 0
M  V30 2488 C  -27.7675 -0.4606 -29.3191 0
M  V30 2489 C  -27.3857 0.8751 -28.6415 0
M  V30 2490 C  -27.5004 2.0812 -29.5804 0
M  V30 2491 C  -27.2943 3.4084 -28.8309 0
M  V30 2492 N  -27.4955 4.5710 -29.7126 0 CHG=1
M  V30 2493 N  -30.1159 -1.2715 -27.4392 0
M  V30 2494 C  -31.1646 -0.9303 -26.4762 0 CFG=2
M  V30 2495 C  -31.3288 -1.9601 -25.3448 0
M  V30 2496 O  -31.4619 -1.5583 -24.1912 0
M  V30 2497 C  -32.4810 -0.6717 -27.2438 0
M  V30 2498 C  -33.7510 -0.3930 -26.4050 0
M  V30 2499 C  -33.7049 0.8700 -25.5349 0
M  V30 2500 O  -32.8044 1.6973 -25.6594 0
M  V30 2501 N  -34.7086 1.0445 -24.6718 0
M  V30 2502 N  -31.2869 -3.2590 -25.6846 0
M  V30 2503 C  -31.3468 -4.3610 -24.7247 0 CFG=2
M  V30 2504 C  -30.1102 -4.4027 -23.8086 0
M  V30 2505 O  -30.2796 -4.5928 -22.6066 0
M  V30 2506 C  -31.5800 -5.7050 -25.4505 0
M  V30 2507 C  -32.9410 -5.7893 -26.1720 0
M  V30 2508 C  -33.3334 -7.2200 -26.5794 0
M  V30 2509 N  -34.4779 -7.2565 -27.5079 0
M  V30 2510 C  -34.4735 -7.6450 -28.7980 0
M  V30 2511 N  -33.3768 -8.0995 -29.4199 0
M  V30 2512 N  -35.6129 -7.5822 -29.4947 0 CHG=1
M  V30 2513 N  -28.9061 -4.1568 -24.3568 0
M  V30 2514 C  -27.6733 -4.0332 -23.5710 0 CFG=2
M  V30 2515 C  -27.6792 -2.8047 -22.6411 0
M  V30 2516 O  -27.2342 -2.9153 -21.5002 0
M  V30 2517 N  -28.1977 -1.6770 -23.1525 0
M  V30 2518 C  -28.3419 -0.3987 -22.4632 0 CFG=2
M  V30 2519 C  -29.2646 -0.4763 -21.2335 0
M  V30 2520 O  -28.8346 -0.1078 -20.1409 0
M  V30 2521 C  -28.7582 0.6676 -23.5079 0
M  V30 2522 C  -29.1998 2.0474 -22.9840 0
M  V30 2523 C  -28.1599 2.7797 -22.1290 0
M  V30 2524 O  -26.9513 2.7353 -22.4590 0
M  V30 2525 O  -28.6132 3.3986 -21.1463 0 CHG=-1
M  V30 2526 N  -30.4929 -0.9879 -21.4255 0
M  V30 2527 C  -31.4867 -1.1492 -20.3623 0 CFG=2
M  V30 2528 C  -31.0691 -2.1858 -19.2983 0
M  V30 2529 O  -31.2801 -1.9281 -18.1138 0
M  V30 2530 C  -32.8900 -1.5139 -20.9235 0
M  V30 2531 C  -33.9228 -1.8873 -19.8425 0
M  V30 2532 C  -33.4635 -0.3570 -21.7612 0
M  V30 2533 N  -30.4521 -3.3058 -19.7186 0
M  V30 2534 C  -29.9161 -4.3209 -18.8078 0 CFG=2
M  V30 2535 C  -28.8199 -3.7726 -17.8830 0
M  V30 2536 O  -28.8458 -4.0583 -16.6879 0
M  V30 2537 C  -29.3764 -5.5182 -19.6015 0
M  V30 2538 N  -27.9036 -2.9714 -18.4494 0
M  V30 2539 C  -26.8140 -2.3332 -17.7208 0 CFG=2
M  V30 2540 C  -27.2553 -1.2546 -16.7140 0
M  V30 2541 O  -26.6946 -1.2323 -15.6185 0
M  V30 2542 C  -25.7451 -1.8311 -18.7140 0
M  V30 2543 C  -24.6852 -2.9031 -19.0360 0
M  V30 2544 C  -23.3710 -2.3138 -19.5731 0
M  V30 2545 C  -22.1889 -3.2866 -19.4174 0
M  V30 2546 N  -20.8977 -2.6270 -19.6806 0 CHG=1
M  V30 2547 N  -28.2553 -0.4202 -17.0613 0
M  V30 2548 C  -28.8195 0.5889 -16.1488 0 CFG=2
M  V30 2549 C  -29.5497 -0.0393 -14.9455 0
M  V30 2550 O  -29.3083 0.4023 -13.8233 0
M  V30 2551 C  -29.8211 1.5659 -16.8271 0 CFG=2
M  V30 2552 O  -30.9129 0.9091 -17.4372 0
M  V30 2553 C  -29.1782 2.4837 -17.8622 0
M  V30 2554 N  -30.3944 -1.0590 -15.1828 0
M  V30 2555 C  -31.1516 -1.7439 -14.1327 0 CFG=2
M  V30 2556 C  -30.2306 -2.5404 -13.1873 0
M  V30 2557 O  -30.4045 -2.4420 -11.9736 0
M  V30 2558 C  -32.2558 -2.6720 -14.7227 0
M  V30 2559 C  -32.9401 -3.6046 -13.6971 0
M  V30 2560 C  -33.3417 -1.8457 -15.4392 0
M  V30 2561 N  -29.2449 -3.2613 -13.7526 0
M  V30 2562 C  -28.2477 -4.0225 -12.9999 0 CFG=2
M  V30 2563 C  -27.3741 -3.1642 -12.0721 0
M  V30 2564 O  -27.2139 -3.5283 -10.9073 0
M  V30 2565 C  -27.4024 -4.8889 -13.9563 0
M  V30 2566 C  -26.2533 -5.6471 -13.3124 0
M  V30 2567 C  -26.5189 -6.7433 -12.4644 0
M  V30 2568 C  -24.9311 -5.1649 -13.4196 0
M  V30 2569 C  -25.4795 -7.3541 -11.7753 0
M  V30 2570 C  -23.9056 -5.7948 -12.7274 0
M  V30 2571 C  -24.1793 -6.8831 -11.9084 0
M  V30 2572 N  -26.8344 -2.0514 -12.6042 0
M  V30 2573 C  -25.9202 -1.1652 -11.8816 0 CFG=2
M  V30 2574 C  -26.5783 -0.4561 -10.6840 0
M  V30 2575 O  -25.9225 -0.3353 -9.6527 0
M  V30 2576 C  -25.1581 -0.2002 -12.8199 0
M  V30 2577 S  -26.0883 1.2787 -13.3308 0
M  V30 2578 N  -27.8532 -0.0436 -10.8123 0
M  V30 2579 C  -28.5974 0.6173 -9.7368 0 CFG=2
M  V30 2580 C  -28.9505 -0.3370 -8.5809 0
M  V30 2581 O  -28.8942 0.0883 -7.4269 0
M  V30 2582 C  -29.8730 1.2843 -10.2950 0
M  V30 2583 C  -29.6483 2.5111 -11.2043 0
M  V30 2584 C  -30.9900 2.9826 -11.7927 0
M  V30 2585 C  -28.9195 3.6682 -10.4935 0
M  V30 2586 N  -29.2811 -1.6023 -8.8985 0
M  V30 2587 C  -29.5746 -2.6423 -7.9075 0 CFG=2
M  V30 2588 C  -28.3112 -3.1044 -7.1639 0
M  V30 2589 O  -28.3801 -3.2884 -5.9508 0
M  V30 2590 C  -30.2600 -3.8804 -8.5485 0
M  V30 2591 C  -30.4278 -5.1015 -7.6134 0
M  V30 2592 C  -31.6383 -3.4947 -9.0870 0
M  V30 2593 N  -27.1897 -3.2483 -7.8925 0
M  V30 2594 C  -25.8759 -3.5925 -7.3476 0 CFG=2
M  V30 2595 C  -25.3646 -2.5344 -6.3551 0
M  V30 2596 O  -24.9024 -2.9035 -5.2764 0
M  V30 2597 C  -24.8868 -3.8221 -8.5145 0
M  V30 2598 C  -23.4550 -4.2428 -8.1031 0
M  V30 2599 C  -23.4492 -5.5839 -7.3390 0
M  V30 2600 C  -22.5162 -4.2646 -9.3280 0
M  V30 2601 N  -25.5008 -1.2472 -6.7218 0
M  V30 2602 C  -25.1610 -0.1048 -5.8730 0 CFG=2
M  V30 2603 C  -26.0088 -0.0505 -4.5892 0
M  V30 2604 O  -25.4355 0.1982 -3.5323 0
M  V30 2605 C  -25.2508 1.2406 -6.6535 0
M  V30 2606 C  -25.2845 2.5267 -5.7971 0
M  V30 2607 C  -24.0820 1.3486 -7.6456 0
M  V30 2608 N  -27.3196 -0.3453 -4.6783 0
M  V30 2609 C  -28.1895 -0.4587 -3.5054 0 CFG=2
M  V30 2610 C  -27.8024 -1.6473 -2.6051 0
M  V30 2611 O  -27.6686 -1.4614 -1.3977 0
M  V30 2612 C  -29.6785 -0.5050 -3.9226 0
M  V30 2613 C  -30.6471 -0.4629 -2.7483 0
M  V30 2614 C  -30.9235 -1.6307 -2.0047 0
M  V30 2615 C  -31.1009 0.7777 -2.2542 0
M  V30 2616 C  -31.6408 -1.5565 -0.8189 0
M  V30 2617 C  -31.8259 0.8326 -1.0716 0
M  V30 2618 C  -32.0796 -0.3276 -0.3490 0
M  V30 2619 N  -27.6353 -2.8379 -3.2052 0
M  V30 2620 C  -27.3565 -4.0949 -2.5121 0 CFG=2
M  V30 2621 C  -26.0834 -4.0586 -1.6557 0
M  V30 2622 O  -26.1472 -4.4270 -0.4864 0
M  V30 2623 C  -27.3028 -5.2438 -3.5289 0
M  V30 2624 N  -24.9742 -3.5632 -2.2283 0
M  V30 2625 C  -23.6901 -3.4149 -1.5370 0 CFG=2
M  V30 2626 C  -23.6784 -2.3057 -0.4713 0
M  V30 2627 O  -22.8226 -2.3475 0.4120 0
M  V30 2628 C  -22.5772 -3.1477 -2.5731 0
M  V30 2629 C  -22.3066 -4.3068 -3.5564 0
M  V30 2630 C  -21.2201 -3.9047 -4.5736 0
M  V30 2631 C  -21.9672 -5.6360 -2.8520 0
M  V30 2632 N  -24.6046 -1.3403 -0.5727 0
M  V30 2633 C  -24.6881 -0.1986 0.3306 0 CFG=2
M  V30 2634 C  -25.5674 -0.4658 1.5599 0
M  V30 2635 O  -25.2875 0.0761 2.6267 0
M  V30 2636 C  -25.1958 1.0458 -0.3953 0
M  V30 2637 S  -23.8466 1.7849 -1.3634 0
M  V30 2638 N  -26.6167 -1.2784 1.3984 0
M  V30 2639 C  -27.5720 -1.5624 2.4614 0 CFG=2
M  V30 2640 C  -27.3531 -2.9312 3.1113 0
M  V30 2641 O  -27.8403 -3.1093 4.2247 0
M  V30 2642 C  -28.9944 -1.3452 1.9258 0
M  V30 2643 C  -29.3474 0.0995 1.7355 0
M  V30 2644 C  -29.0846 0.8417 0.6363 0
M  V30 2645 C  -29.9183 1.0276 2.7093 0
M  V30 2646 N  -29.5082 2.1366 0.8348 0
M  V30 2647 C  -30.0276 2.3135 2.0969 0
M  V30 2648 C  -30.3498 0.9210 4.0528 0
M  V30 2649 C  -30.5524 3.4284 2.7709 0
M  V30 2650 C  -30.8717 2.0341 4.7415 0
M  V30 2651 C  -30.9687 3.2852 4.1061 0
M  V30 2652 N  -26.5864 -3.8446 2.4832 0
M  V30 2653 C  -26.2216 -5.1229 3.1014 0 CFG=2
M  V30 2654 C  -25.3913 -4.9749 4.3929 0
M  V30 2655 O  -25.7805 -5.6111 5.3634 0
M  V30 2656 C  -25.5894 -6.1049 2.0829 0
M  V30 2657 C  -25.2699 -7.5256 2.6082 0
M  V30 2658 C  -26.5176 -8.2454 3.1679 0
M  V30 2659 C  -24.5658 -8.3591 1.5157 0
M  V30 2660 N  -24.3476 -4.1117 4.4537 0
M  V30 2661 C  -23.5790 -3.9125 5.6991 0 CFG=2
M  V30 2662 C  -24.3832 -3.3330 6.8796 0
M  V30 2663 O  -24.1037 -3.7076 8.0142 0
M  V30 2664 C  -22.3969 -3.0218 5.2764 0
M  V30 2665 C  -22.2676 -3.2596 3.7815 0
M  V30 2666 C  -23.7177 -3.3924 3.3499 0
M  V30 2667 N  -25.3896 -2.4839 6.6033 0
M  V30 2668 C  -26.2915 -1.9306 7.6178 0 CFG=2
M  V30 2669 C  -27.3133 -2.9622 8.1170 0
M  V30 2670 O  -27.4545 -3.1346 9.3259 0
M  V30 2671 C  -26.9926 -0.6780 7.0497 0
M  V30 2672 C  -27.8472 0.1238 8.0596 0
M  V30 2673 C  -27.0380 0.6252 9.2750 0
M  V30 2674 C  -28.5850 1.2716 7.3472 0
M  V30 2675 N  -28.0025 -3.6276 7.1773 0
M  V30 2676 C  -29.0098 -4.6473 7.4647 0 CFG=2
M  V30 2677 C  -28.4380 -5.9240 8.0981 0
M  V30 2678 O  -29.1170 -6.5322 8.9240 0
M  V30 2679 C  -29.7762 -4.9886 6.1814 0
M  V30 2680 C  -30.7847 -3.9483 5.7673 0
M  V30 2681 N  -30.6368 -3.1482 4.6522 0
M  V30 2682 C  -31.9946 -3.5893 6.3090 0
M  V30 2683 C  -31.7231 -2.3794 4.5557 0
M  V30 2684 N  -32.5981 -2.6067 5.5221 0
M  V30 2685 N  -27.2006 -6.2872 7.7244 0
M  V30 2686 C  -26.4684 -7.4137 8.2930 0 CFG=2
M  V30 2687 C  -25.9884 -7.1214 9.7259 0
M  V30 2688 O  -26.0005 -8.0409 10.5391 0
M  V30 2689 C  -25.3320 -7.8371 7.3385 0
M  V30 2690 C  -24.7219 -9.2287 7.5954 0
M  V30 2691 C  -25.7705 -10.3589 7.4971 0
M  V30 2692 C  -23.5217 -9.4751 6.6566 0
M  V30 2693 N  -25.6566 -5.8523 10.0397 0
M  V30 2694 C  -25.3563 -5.3961 11.4027 0 CFG=2
M  V30 2695 C  -26.5452 -5.5578 12.3664 0
M  V30 2696 O  -26.3375 -5.9312 13.5197 0
M  V30 2697 C  -24.9114 -3.9246 11.3836 0
M  V30 2698 N  -27.7604 -5.2882 11.8592 0
M  V30 2699 C  -29.0244 -5.3470 12.5928 0 CFG=2
M  V30 2700 C  -29.4155 -6.7722 12.9913 0
M  V30 2701 O  -29.6841 -7.0044 14.1699 0
M  V30 2702 C  -30.1378 -4.6987 11.7492 0
M  V30 2703 C  -29.8871 -3.2039 11.5106 0
M  V30 2704 C  -30.8147 -2.3321 12.3594 0
M  V30 2705 N  -30.3218 -0.9522 12.4410 0
M  V30 2706 C  -30.9962 0.1120 12.9023 0
M  V30 2707 N  -30.3706 1.2939 12.9463 0
M  V30 2708 N  -32.2685 0.0234 13.3205 0 CHG=1
M  V30 2709 N  -29.4355 -7.6933 12.0125 0
M  V30 2710 C  -29.8250 -9.0836 12.2433 0 CFG=2
M  V30 2711 C  -28.7825 -9.8811 13.0487 0
M  V30 2712 O  -29.1952 -10.7554 13.8053 0
M  V30 2713 C  -30.1675 -9.8473 10.9356 0 CFG=2
M  V30 2714 C  -28.9737 -10.0573 9.9751 0
M  V30 2715 C  -31.3603 -9.1807 10.2255 0
M  V30 2716 C  -29.3034 -10.9133 8.7436 0
M  V30 2717 N  -27.4823 -9.5424 12.9375 0
M  V30 2718 C  -26.4270 -10.1316 13.7691 0 CFG=2
M  V30 2719 C  -26.4944 -9.6573 15.2305 0
M  V30 2720 O  -26.2197 -10.4632 16.1195 0
M  V30 2721 C  -25.0256 -9.8556 13.1774 0
M  V30 2722 C  -24.6738 -10.6493 11.8963 0
M  V30 2723 C  -23.2476 -10.2933 11.4239 0
M  V30 2724 C  -24.8538 -12.1718 12.0523 0
M  V30 2725 N  -26.8881 -8.3903 15.4607 0
M  V30 2726 C  -27.0839 -7.8422 16.8038 0 CFG=2
M  V30 2727 C  -28.3299 -8.4148 17.4983 0
M  V30 2728 O  -28.2709 -8.6486 18.7012 0
M  V30 2729 N  -29.4236 -8.6428 16.7517 0
M  V30 2730 C  -30.6615 -9.1951 17.3032 0 CFG=2
M  V30 2731 C  -30.5197 -10.6789 17.6906 0
M  V30 2732 O  -30.9324 -11.0483 18.7894 0
M  V30 2733 C  -31.8346 -8.9278 16.3288 0
M  V30 2734 C  -33.2413 -9.2351 16.9044 0
M  V30 2735 C  -34.3168 -8.3909 16.2005 0
M  V30 2736 C  -33.6025 -10.7367 16.8667 0
M  V30 2737 N  -29.9658 -11.4956 16.7784 0
M  V30 2738 C  -29.9143 -12.9540 16.9174 0 CFG=2
M  V30 2739 C  -28.8641 -13.4608 17.9292 0
M  V30 2740 O  -29.1845 -14.4082 18.6471 0
M  V30 2741 C  -29.6636 -13.6589 15.5592 0 CFG=2
M  V30 2742 O  -28.4760 -13.2022 14.9429 0
M  V30 2743 C  -30.8261 -13.4768 14.5714 0
M  V30 2744 N  -27.6726 -12.8379 18.0062 0
M  V30 2745 C  -26.6207 -13.2329 18.9491 0 CFG=2
M  V30 2746 C  -25.9998 -12.0097 19.6402 0
M  V30 2747 O  -24.9403 -11.5262 19.2419 0
M  V30 2748 C  -25.5951 -14.2160 18.3215 0
M  V30 2749 C  -24.8245 -13.7558 17.0544 0
M  V30 2750 C  -23.3778 -14.2960 17.0485 0
M  V30 2751 C  -25.5723 -14.1245 15.7575 0
M  V30 2752 N  -26.6681 -11.5665 20.7146 0
M  V30 2753 C  -26.1561 -10.5721 21.6494 0 CFG=2
M  V30 2754 C  -26.8125 -10.8070 23.0133 0
M  V30 2755 O  -28.0409 -10.8002 23.0953 0
M  V30 2756 C  -26.4207 -9.1475 21.1215 0
M  V30 2757 C  -25.9314 -8.0313 22.0235 0
M  V30 2758 C  -24.6009 -7.5759 21.9255 0
M  V30 2759 C  -26.7996 -7.4651 22.9806 0
M  V30 2760 C  -24.1367 -6.5700 22.7943 0
M  V30 2761 C  -26.3340 -6.4622 23.8498 0
M  V30 2762 C  -25.0014 -6.0154 23.7579 0
M  V30 2763 O  -24.5459 -5.0516 24.6074 0
M  V30 2764 N  -25.9777 -10.9591 24.0526 0
M  V30 2765 C  -26.3799 -11.0400 25.4585 0 CFG=2
M  V30 2766 C  -25.3330 -10.3007 26.3000 0
M  V30 2767 O  -24.1401 -10.3500 25.9948 0
M  V30 2768 C  -26.5276 -12.5171 25.9015 0
M  V30 2769 C  -27.7710 -13.2125 25.3336 0
M  V30 2770 O  -28.8773 -12.6818 25.4113 0
M  V30 2771 N  -27.5994 -14.4124 24.7765 0
M  V30 2772 N  -25.8197 -9.6246 27.3514 0
M  V30 2773 C  -25.0418 -8.7339 28.2174 0 CFG=2
M  V30 2774 C  -24.1443 -9.4897 29.2238 0
M  V30 2775 O  -23.2289 -8.8788 29.7759 0
M  V30 2776 C  -26.0511 -7.8340 28.9749 0
M  V30 2777 C  -25.5260 -6.4268 29.3284 0
M  V30 2778 C  -25.4209 -5.4876 28.1198 0
M  V30 2779 O  -26.0274 -5.7202 27.0768 0
M  V30 2780 N  -24.6716 -4.3940 28.2660 0
M  V30 2781 N  -24.4516 -10.7771 29.4634 0
M  V30 2782 C  -23.8858 -11.6334 30.5132 0 CFG=2
M  V30 2783 C  -22.3751 -11.8832 30.3651 0
M  V30 2784 O  -21.6514 -11.8305 31.3592 0
M  V30 2785 C  -24.6146 -13.0040 30.5351 0
M  V30 2786 C  -26.1461 -12.9313 30.6009 0
M  V30 2787 O  -26.7143 -12.0184 31.1964 0
M  V30 2788 N  -26.8225 -13.9045 29.9866 0
M  V30 2789 N  -21.9482 -12.1845 29.1291 0
M  V30 2790 C  -20.6063 -12.6672 28.7941 0 CFG=2
M  V30 2791 C  -19.5798 -11.5123 28.7691 0
M  V30 2792 O  -19.9002 -10.4492 28.2364 0
M  V30 2793 C  -20.6063 -13.3989 27.4257 0
M  V30 2794 C  -21.6186 -14.5544 27.2816 0
M  V30 2795 O  -21.9481 -15.1988 28.3037 0
M  V30 2796 O  -21.9580 -14.8598 26.1176 0 CHG=-1
M  V30 2797 N  -18.3602 -11.7320 29.3189 0
M  V30 2798 C  -17.2805 -10.7275 29.2830 0 CFG=2
M  V30 2799 C  -16.5798 -10.5780 27.9159 0
M  V30 2800 O  -15.9706 -9.5332 27.6849 0
M  V30 2801 C  -16.3119 -11.2114 30.3695 0
M  V30 2802 C  -16.4472 -12.7248 30.3323 0
M  V30 2803 C  -17.9295 -12.9354 30.0363 0
M  V30 2804 N  -16.7209 -11.5755 27.0159 0
M  V30 2805 C  -16.2906 -11.5116 25.6074 0 CFG=2
M  V30 2806 C  -17.0978 -10.5042 24.7648 0
M  V30 2807 O  -16.7659 -10.3271 23.5920 0
M  V30 2808 N  -18.0943 -9.8291 25.3712 0
M  V30 2809 C  -18.8330 -8.7139 24.7920 0 CFG=2
M  V30 2810 C  -17.9278 -7.5874 24.2695 0
M  V30 2811 O  -18.2635 -7.0330 23.2421 0
M  V30 2812 N  -16.8081 -7.2598 24.9361 0
M  V30 2813 C  -15.9595 -6.1312 24.5336 0 CFG=2
M  V30 2814 C  -15.1097 -6.3629 23.2715 0
M  V30 2815 O  -14.6423 -5.3803 22.6988 0
M  V30 2816 C  -15.1466 -5.6424 25.7391 0
M  V30 2817 S  -16.1422 -4.5545 26.7924 0
M  V30 2818 N  -14.9843 -7.6214 22.8226 0
M  V30 2819 C  -14.4453 -7.9754 21.5082 0 CFG=2
M  V30 2820 C  -15.5761 -8.0930 20.4650 0
M  V30 2821 O  -15.3844 -7.6861 19.3194 0
M  V30 2822 N  -16.7348 -8.6259 20.8917 0
M  V30 2823 C  -17.9328 -8.8748 20.0860 0 CFG=2
M  V30 2824 C  -18.6795 -7.5775 19.7039 0
M  V30 2825 O  -18.9727 -7.3736 18.5291 0
M  V30 2826 C  -18.7993 -9.8892 20.8781 0
M  V30 2827 C  -20.0846 -10.4502 20.2285 0
M  V30 2828 C  -21.3125 -9.5242 20.3432 0
M  V30 2829 C  -19.8454 -10.9781 18.8054 0
M  V30 2830 N  -18.9528 -6.7213 20.7010 0
M  V30 2831 C  -19.6177 -5.4186 20.6099 0 CFG=2
M  V30 2832 C  -18.7647 -4.3872 19.8642 0
M  V30 2833 O  -19.3305 -3.5931 19.1165 0
M  V30 2834 C  -20.0052 -4.9379 22.0365 0
M  V30 2835 C  -20.8996 -3.6814 22.1705 0
M  V30 2836 C  -20.1467 -2.3461 21.9831 0
M  V30 2837 C  -22.1997 -3.7683 21.3479 0
M  V30 2838 N  -17.4309 -4.4450 20.0405 0
M  V30 2839 C  -16.4621 -3.6681 19.2651 0 CFG=2
M  V30 2840 C  -16.5639 -3.9646 17.7578 0
M  V30 2841 O  -16.5573 -3.0243 16.9677 0
M  V30 2842 C  -15.0444 -3.9169 19.8213 0
M  V30 2843 O  -14.0387 -3.2691 19.0674 0
M  V30 2844 N  -16.7135 -5.2515 17.3987 0
M  V30 2845 C  -16.9221 -5.6941 16.0226 0 CFG=2
M  V30 2846 C  -18.2922 -5.2833 15.4411 0
M  V30 2847 O  -18.3436 -4.8651 14.2849 0
M  V30 2848 C  -16.6299 -7.2079 15.9210 0
M  V30 2849 C  -16.8077 -7.8100 14.5394 0
M  V30 2850 C  -15.8891 -7.4911 13.5177 0
M  V30 2851 C  -17.9535 -8.5705 14.2229 0
M  V30 2852 C  -16.0990 -7.9556 12.2270 0
M  V30 2853 C  -18.1436 -9.0274 12.9258 0
M  V30 2854 C  -17.2200 -8.7220 11.9336 0
M  V30 2855 N  -19.3611 -5.3831 16.2519 0
M  V30 2856 C  -20.7381 -5.0691 15.8556 0 CFG=2
M  V30 2857 C  -20.9795 -3.5624 15.6626 0
M  V30 2858 O  -21.6156 -3.1979 14.6753 0
M  V30 2859 C  -21.7420 -5.6674 16.8718 0
M  V30 2860 C  -22.3374 -7.0363 16.4740 0
M  V30 2861 C  -21.3017 -8.1657 16.3447 0
M  V30 2862 C  -23.4635 -7.4421 17.4327 0
M  V30 2863 N  -20.4698 -2.7226 16.5830 0
M  V30 2864 C  -20.5968 -1.2628 16.5261 0 CFG=2
M  V30 2865 C  -19.8235 -0.6560 15.3458 0
M  V30 2866 O  -20.3661 0.2181 14.6735 0
M  V30 2867 C  -20.2152 -0.6397 17.8912 0
M  V30 2868 C  -20.4132 0.8986 18.0007 0
M  V30 2869 C  -20.9229 1.3175 19.3964 0
M  V30 2870 C  -19.1362 1.6888 17.6458 0
M  V30 2871 N  -18.5995 -1.1497 15.0878 0
M  V30 2872 C  -17.7767 -0.7480 13.9433 0 CFG=2
M  V30 2873 C  -18.4641 -1.0444 12.5961 0
M  V30 2874 O  -18.5685 -0.1413 11.7681 0
M  V30 2875 C  -16.3676 -1.4142 13.9952 0
M  V30 2876 C  -15.5748 -1.4526 12.6717 0
M  V30 2877 C  -15.5036 -0.7397 15.0712 0
M  V30 2878 N  -18.9567 -2.2830 12.4323 0
M  V30 2879 C  -19.6496 -2.7571 11.2340 0 CFG=2
M  V30 2880 C  -21.0072 -2.0581 10.9867 0
M  V30 2881 O  -21.3608 -1.8481 9.8260 0
M  V30 2882 C  -19.7104 -4.3013 11.3123 0
M  V30 2883 C  -20.3116 -5.0305 10.0886 0
M  V30 2884 C  -19.6208 -6.3845 9.8533 0
M  V30 2885 C  -21.8323 -5.2208 10.2209 0
M  V30 2886 N  -21.7081 -1.6612 12.0667 0
M  V30 2887 C  -22.9526 -0.8840 12.0342 0 CFG=2
M  V30 2888 C  -22.7322 0.5518 11.5188 0
M  V30 2889 O  -23.4570 0.9813 10.6218 0
M  V30 2890 C  -23.6500 -0.8657 13.4194 0
M  V30 2891 C  -25.0009 -0.1268 13.4936 0
M  V30 2892 O  -25.8090 -0.2606 12.5466 0
M  V30 2893 O  -25.2563 0.4690 14.5628 0 CHG=-1
M  V30 2894 N  -21.7377 1.2567 12.0898 0
M  V30 2895 C  -21.3604 2.6192 11.6997 0 CFG=2
M  V30 2896 C  -20.8831 2.7136 10.2468 0
M  V30 2897 O  -21.2398 3.6819 9.5787 0
M  V30 2898 C  -20.2702 3.1681 12.6331 0
M  V30 2899 C  -20.7496 3.9035 13.8727 0
M  V30 2900 C  -21.5070 3.2387 14.8585 0
M  V30 2901 C  -20.4012 5.2592 14.0621 0
M  V30 2902 C  -21.8729 3.9075 16.0413 0
M  V30 2903 C  -20.7665 5.9292 15.2448 0
M  V30 2904 C  -21.4936 5.2493 16.2407 0
M  V30 2905 O  -21.8353 5.8896 17.3956 0
M  V30 2906 N  -20.1324 1.7022 9.7729 0
M  V30 2907 C  -19.7726 1.5650 8.3623 0 CFG=2
M  V30 2908 C  -21.0332 1.4389 7.4912 0
M  V30 2909 O  -21.1331 2.1825 6.5254 0
M  V30 2910 C  -18.8149 0.3682 8.0903 0 CFG=2
M  V30 2911 C  -17.4451 0.5941 8.7671 0
M  V30 2912 C  -18.5936 0.0481 6.5924 0
M  V30 2913 C  -16.6241 -0.6934 8.9394 0
M  V30 2914 N  -21.9943 0.5903 7.8983 0
M  V30 2915 C  -23.2950 0.4056 7.2517 0
M  V30 2916 C  -24.1106 1.7010 7.1050 0
M  V30 2917 O  -24.7540 1.8791 6.0728 0
M  V30 2918 N  -24.0544 2.6171 8.0891 0
M  V30 2919 C  -24.6507 3.9570 8.0043 0 CFG=2
M  V30 2920 C  -23.9977 4.8103 6.8978 0
M  V30 2921 O  -24.7180 5.4116 6.1024 0
M  V30 2922 C  -24.6028 4.7088 9.3739 0 CFG=2
M  V30 2923 C  -25.6238 4.0828 10.3503 0
M  V30 2924 C  -24.7949 6.2449 9.3052 0
M  V30 2925 C  -25.4695 4.5418 11.8062 0
M  V30 2926 N  -22.6540 4.7952 6.8414 0
M  V30 2927 C  -21.8483 5.4509 5.8059 0 CFG=2
M  V30 2928 C  -22.0602 4.8344 4.4095 0
M  V30 2929 O  -22.0380 5.5824 3.4365 0
M  V30 2930 C  -20.3552 5.4348 6.2134 0
M  V30 2931 C  -20.0476 6.3359 7.4162 0
M  V30 2932 O  -20.3030 7.5359 7.3838 0
M  V30 2933 N  -19.4815 5.7713 8.4822 0
M  V30 2934 N  -22.3075 3.5148 4.3319 0
M  V30 2935 C  -22.6481 2.8047 3.1006 0 CFG=2
M  V30 2936 C  -24.0404 3.1944 2.5718 0
M  V30 2937 O  -24.1584 3.5211 1.3946 0
M  V30 2938 C  -22.5396 1.2770 3.2949 0
M  V30 2939 C  -21.1575 0.6926 3.6179 0
M  V30 2940 S  -19.7486 1.3005 2.6615 0
M  V30 2941 C  -20.1847 0.6282 1.0381 0
M  V30 2942 N  -25.0586 3.1927 3.4464 0
M  V30 2943 C  -26.4335 3.5891 3.1316 0 CFG=2
M  V30 2944 C  -26.5829 5.0665 2.7268 0
M  V30 2945 O  -27.3865 5.3668 1.8434 0
M  V30 2946 C  -27.3232 3.2485 4.3297 0
M  V30 2947 N  -25.7691 5.9473 3.3339 0
M  V30 2948 C  -25.6381 7.3489 2.9404 0 CFG=2
M  V30 2949 C  -24.8806 7.5106 1.6027 0
M  V30 2950 O  -25.2350 8.3996 0.8323 0
M  V30 2951 C  -25.0404 8.1624 4.1107 0
M  V30 2952 O  -23.6323 8.0781 4.1932 0
M  V30 2953 N  -23.9066 6.6264 1.3099 0
M  V30 2954 C  -23.2090 6.5785 0.0207 0 CFG=2
M  V30 2955 C  -24.1189 6.1740 -1.1508 0
M  V30 2956 O  -23.8941 6.6973 -2.2353 0
M  V30 2957 C  -21.9500 5.6791 0.0809 0
M  V30 2958 C  -20.6679 6.3956 0.5579 0
M  V30 2959 C  -19.5509 5.3754 0.8720 0
M  V30 2960 C  -20.2021 7.4857 -0.4331 0
M  V30 2961 N  -25.1429 5.3229 -0.9360 0
M  V30 2962 C  -26.1574 4.9824 -1.9505 0 CFG=2
M  V30 2963 C  -26.9205 6.2211 -2.4464 0
M  V30 2964 O  -27.1118 6.3588 -3.6553 0
M  V30 2965 C  -27.1086 3.8970 -1.3898 0
M  V30 2966 C  -28.3565 3.5910 -2.2274 0
M  V30 2967 O  -29.4783 3.7806 -1.7642 0
M  V30 2968 N  -28.1639 3.1090 -3.4551 0
M  V30 2969 N  -27.3047 7.0965 -1.5013 0
M  V30 2970 C  -28.0424 8.3285 -1.7669 0 CFG=2
M  V30 2971 C  -27.2718 9.3898 -2.5865 0
M  V30 2972 O  -27.9129 10.3192 -3.0728 0
M  V30 2973 C  -28.6745 8.8483 -0.4598 0
M  V30 2974 O  -27.7625 9.4959 0.3971 0
M  V30 2975 N  -25.9475 9.2171 -2.7707 0
M  V30 2976 C  -25.0939 10.0758 -3.5982 0 CFG=2
M  V30 2977 C  -24.4116 9.3332 -4.7678 0
M  V30 2978 O  -23.8855 10.0136 -5.6485 0
M  V30 2979 C  -24.0724 10.8457 -2.7293 0
M  V30 2980 S  -22.6702 9.8349 -2.1700 0
M  V30 2981 N  -24.4085 7.9874 -4.7685 0
M  V30 2982 C  -23.6908 7.1625 -5.7480 0 CFG=2
M  V30 2983 C  -24.5554 6.6765 -6.9209 0
M  V30 2984 O  -23.9744 6.2493 -7.9177 0
M  V30 2985 C  -23.0467 5.9586 -5.0417 0
M  V30 2986 N  -25.8972 6.7469 -6.8172 0
M  V30 2987 C  -26.8126 6.3814 -7.9111 0 CFG=2
M  V30 2988 C  -26.6926 7.2591 -9.1822 0
M  V30 2989 O  -26.6909 6.6661 -10.2607 0
M  V30 2990 C  -28.2786 6.3160 -7.4063 0
M  V30 2991 C  -28.6415 5.0418 -6.6323 0
M  V30 2992 O  -28.1293 3.9598 -6.9082 0
M  V30 2993 N  -29.5733 5.1515 -5.6856 0
M  V30 2994 N  -26.5359 8.6044 -9.0842 0
M  V30 2995 C  -26.3011 9.4536 -10.2723 0 CFG=2
M  V30 2996 C  -24.9741 9.1890 -11.0038 0
M  V30 2997 O  -24.9459 9.2412 -12.2331 0
M  V30 2998 C  -26.3523 10.8911 -9.7302 0
M  V30 2999 C  -27.1076 10.7892 -8.4188 0
M  V30 3000 C  -26.6921 9.4305 -7.8887 0
M  V30 3001 N  -23.9123 8.9042 -10.2303 0
M  V30 3002 C  -22.5683 8.6071 -10.7278 0 CFG=2
M  V30 3003 C  -22.5115 7.2394 -11.4411 0
M  V30 3004 O  -21.8704 7.1371 -12.4870 0
M  V30 3005 C  -21.5187 8.6336 -9.5734 0 CFG=2
M  V30 3006 C  -21.4606 10.0283 -8.9028 0
M  V30 3007 C  -20.0984 8.1946 -10.0021 0
M  V30 3008 C  -20.6867 10.0531 -7.5754 0
M  V30 3009 N  -23.2153 6.2358 -10.8856 0
M  V30 3010 C  -23.3208 4.8784 -11.4252 0 CFG=2
M  V30 3011 C  -23.9602 4.8056 -12.8209 0
M  V30 3012 O  -23.5563 3.9566 -13.6159 0
M  V30 3013 C  -24.1017 4.0089 -10.4328 0
M  V30 3014 N  -24.9083 5.7162 -13.1031 0
M  V30 3015 C  -25.5429 5.8570 -14.4114 0 CFG=2
M  V30 3016 C  -24.5991 6.4287 -15.4804 0
M  V30 3017 O  -24.6867 5.9890 -16.6221 0
M  V30 3018 C  -26.8140 6.7195 -14.2904 0
M  V30 3019 C  -27.9753 6.0355 -13.5396 0
M  V30 3020 C  -29.1243 7.0315 -13.3140 0
M  V30 3021 C  -28.4598 4.7452 -14.2360 0
M  V30 3022 N  -23.6921 7.3548 -15.1218 0
M  V30 3023 C  -22.7017 7.8852 -16.0655 0 CFG=2
M  V30 3024 C  -21.7240 6.7978 -16.5543 0
M  V30 3025 O  -21.4686 6.7121 -17.7543 0
M  V30 3026 C  -21.9558 9.0908 -15.4486 0
M  V30 3027 C  -21.0095 9.8065 -16.4046 0
M  V30 3028 C  -19.7102 9.3086 -16.6437 0
M  V30 3029 C  -21.4418 10.9602 -17.0883 0
M  V30 3030 C  -18.8739 9.9273 -17.5922 0
M  V30 3031 C  -20.6011 11.5911 -18.0265 0
M  V30 3032 C  -19.3209 11.0660 -18.2893 0
M  V30 3033 O  -18.5149 11.6571 -19.2175 0
M  V30 3034 N  -21.1953 6.0011 -15.6110 0
M  V30 3035 C  -20.1371 5.0237 -15.8633 0 CFG=2
M  V30 3036 C  -20.5887 3.7964 -16.6722 0
M  V30 3037 O  -19.7895 3.2905 -17.4598 0
M  V30 3038 C  -19.5263 4.5717 -14.5176 0
M  V30 3039 C  -18.7670 5.6691 -13.7379 0
M  V30 3040 C  -18.3264 5.1435 -12.3557 0
M  V30 3041 C  -17.5834 6.2614 -14.5328 0
M  V30 3042 N  -21.8252 3.3236 -16.4428 0
M  V30 3043 C  -22.2964 2.0246 -16.9356 0 CFG=2
M  V30 3044 C  -23.3960 2.1597 -18.0182 0
M  V30 3045 O  -23.7092 1.1682 -18.6765 0
M  V30 3046 C  -22.7822 1.1402 -15.7457 0
M  V30 3047 C  -23.2107 -0.2841 -16.1443 0
M  V30 3048 C  -21.7139 1.0316 -14.6392 0
M  V30 3049 N  -23.9069 3.3810 -18.2503 0
M  V30 3050 C  -24.8290 3.6958 -19.3399 0 CFG=2
M  V30 3051 C  -24.2174 4.7468 -20.2681 0
M  V30 3052 O  -23.8297 5.8205 -19.8111 0
M  V30 3053 C  -26.1973 4.0962 -18.7605 0
M  V30 3054 O  -26.9326 4.9798 -19.5803 0
M  V30 3055 N  -24.2064 4.4110 -21.5680 0
M  V30 3056 C  -23.7726 5.2758 -22.6615 0 CFG=2
M  V30 3057 C  -24.7518 6.4323 -22.9129 0
M  V30 3058 O  -24.2960 7.5280 -23.2340 0
M  V30 3059 N  -26.0633 6.1808 -22.7417 0
M  V30 3060 C  -27.1132 7.1858 -22.9042 0 CFG=2
M  V30 3061 C  -27.0735 8.2771 -21.8211 0
M  V30 3062 O  -27.1944 9.4478 -22.1755 0
M  V30 3063 C  -28.4897 6.5020 -23.0148 0
M  V30 3064 C  -29.6606 7.4768 -23.2363 0
M  V30 3065 C  -30.9414 6.7629 -23.6855 0
M  V30 3066 N  -32.0948 7.6824 -23.7095 0
M  V30 3067 C  -33.0965 7.7456 -24.6089 0
M  V30 3068 N  -34.0851 8.6209 -24.4035 0
M  V30 3069 N  -33.1580 6.9584 -25.6937 0 CHG=1
M  V30 3070 N  -26.8692 7.8914 -20.5476 0
M  V30 3071 C  -26.6919 8.8317 -19.4370 0 CFG=2
M  V30 3072 C  -25.3686 9.6094 -19.4768 0
M  V30 3073 O  -25.3799 10.7850 -19.1162 0
M  V30 3074 C  -26.9052 8.1483 -18.0713 0
M  V30 3075 C  -28.3522 8.0975 -17.6161 0
M  V30 3076 C  -29.1609 6.9745 -17.8896 0
M  V30 3077 C  -28.9456 9.2427 -17.0434 0
M  V30 3078 C  -30.4994 6.9757 -17.5283 0
M  V30 3079 C  -30.2916 9.2291 -16.7047 0
M  V30 3080 C  -31.0615 8.0965 -16.9343 0
M  V30 3081 N  -24.2751 8.9770 -19.9454 0
M  V30 3082 C  -22.9862 9.6425 -20.1735 0 CFG=2
M  V30 3083 C  -23.0722 10.7532 -21.2365 0
M  V30 3084 O  -22.5064 11.8256 -21.0266 0
M  V30 3085 N  -23.7823 10.4690 -22.3418 0
M  V30 3086 C  -23.9830 11.3949 -23.4573 0 CFG=2
M  V30 3087 C  -25.0043 12.4894 -23.1209 0
M  V30 3088 O  -24.8217 13.6132 -23.5832 0
M  V30 3089 C  -24.4131 10.6192 -24.7227 0
M  V30 3090 C  -23.3214 9.7345 -25.3401 0
M  V30 3091 O  -22.1679 9.7326 -24.9134 0
M  V30 3092 N  -23.6887 8.9775 -26.3750 0
M  V30 3093 N  -26.0312 12.1645 -22.3144 0
M  V30 3094 C  -27.0149 13.1250 -21.8145 0 CFG=2
M  V30 3095 C  -26.3879 14.1326 -20.8415 0
M  V30 3096 O  -26.6675 15.3227 -20.9636 0
M  V30 3097 C  -28.1931 12.3878 -21.1646 0
M  V30 3098 N  -25.4984 13.6552 -19.9532 0
M  V30 3099 C  -24.6661 14.4974 -19.0937 0 CFG=2
M  V30 3100 C  -23.7055 15.3872 -19.8976 0
M  V30 3101 O  -23.6362 16.5758 -19.6019 0
M  V30 3102 C  -23.9308 13.6546 -18.0261 0
M  V30 3103 C  -24.7178 13.3269 -16.7598 0
M  V30 3104 C  -26.1030 13.0464 -16.7959 0
M  V30 3105 C  -24.0280 13.1382 -15.5413 0
M  V30 3106 C  -26.7769 12.6834 -15.6375 0
M  V30 3107 C  -24.7157 12.7586 -14.3956 0
M  V30 3108 C  -26.0869 12.5436 -14.4408 0
M  V30 3109 N  -23.0530 14.8251 -20.9337 0
M  V30 3110 C  -22.1764 15.5451 -21.8655 0 CFG=2
M  V30 3111 C  -22.8967 16.6256 -22.7020 0
M  V30 3112 O  -22.2614 17.6213 -23.0505 0
M  V30 3113 N  -24.2013 16.4442 -22.9805 0
M  V30 3114 C  -25.0358 17.4507 -23.6436 0 CFG=2
M  V30 3115 C  -25.2922 18.6808 -22.7480 0
M  V30 3116 O  -25.3372 19.7928 -23.2725 0
M  V30 3117 C  -26.3233 16.8010 -24.2065 0
M  V30 3118 O  -27.3929 16.7267 -23.2834 0
M  V30 3119 N  -25.3952 18.4640 -21.4225 0
M  V30 3120 C  -25.4769 19.5239 -20.4177 0 CFG=2
M  V30 3121 C  -24.1166 20.1622 -20.0821 0
M  V30 3122 O  -24.1162 21.3216 -19.6704 0
M  V30 3123 C  -26.1616 18.9905 -19.1524 0
M  V30 3124 N  -22.9945 19.4370 -20.2785 0
M  V30 3125 C  -21.6337 19.9757 -20.1349 0 CFG=2
M  V30 3126 C  -21.3495 21.0613 -21.1844 0
M  V30 3127 O  -20.9280 22.1578 -20.8197 0
M  V30 3128 C  -20.5535 18.8678 -20.2500 0
M  V30 3129 C  -20.4831 17.8480 -19.0937 0
M  V30 3130 C  -19.4752 16.7212 -19.4135 0
M  V30 3131 C  -20.2097 18.5058 -17.7274 0
M  V30 3132 N  -21.5961 20.7295 -22.4662 0
M  V30 3133 C  -21.3924 21.5999 -23.6311 0 CFG=2
M  V30 3134 C  -22.5668 22.5590 -23.6757 0
M  V30 3135 O  -22.4937 23.6615 -24.2152 0
M  V30 3136 C  -21.3007 20.7977 -24.9505 0
M  V30 3137 S  -19.8766 19.6639 -24.9291 0
M  V30 3138 S  -38.9950 -6.6818 -27.2892 0
M  V30 3139 O  -37.5553 -6.9584 -27.3208 0
M  V30 3140 O  -39.5971 -7.0949 -28.5607 0
M  V30 3141 O  -39.6126 -7.4256 -26.1865 0 CHG=-1
M  V30 3142 O  -39.2054 -5.2463 -27.0960 0 CHG=-1
M  V30 3143 S  -36.5074 4.6677 -23.5498 0
M  V30 3144 O  -35.3404 3.7781 -23.5539 0
M  V30 3145 O  -36.8084 5.0982 -24.9190 0
M  V30 3146 O  -37.6560 3.9432 -22.9974 0 CHG=-1
M  V30 3147 O  -36.2262 5.8433 -22.7208 0 CHG=-1
M  V30 3148 S  -9.5936 -29.3269 -39.7589 0
M  V30 3149 O  -9.8874 -30.1061 -40.9657 0
M  V30 3150 O  -8.9239 -28.0758 -40.1278 0
M  V30 3151 O  -8.7127 -30.1003 -38.8796 0 CHG=-1
M  V30 3152 O  -10.8400 -29.0217 -39.0492 0 CHG=-1
M  V30 3153 S  -23.2032 -14.3046 -47.9256 0
M  V30 3154 O  -21.7660 -14.5207 -48.1081 0
M  V30 3155 O  -23.9533 -15.0598 -48.9340 0
M  V30 3156 O  -23.5867 -14.7496 -46.5817 0 CHG=-1
M  V30 3157 O  -23.4859 -12.8734 -48.0705 0 CHG=-1
M  V30 3158 H  -16.4108 -3.9660 30.2414 0
M  V30 3159 H  -17.1088 -2.6090 30.7563 0
M  V30 3160 H  -14.8171 -2.2513 30.7182 0
M  V30 3161 H  -14.2626 -4.0205 29.0247 0
M  V30 3162 H  -13.4253 -2.5253 28.7826 0
M  V30 3163 H  -13.6674 -0.5130 29.0348 0
M  V30 3164 H  -15.5989 1.6565 28.3909 0
M  V30 3165 H  -14.0088 -0.5788 26.8776 0
M  V30 3166 H  -12.7903 -0.8770 24.9951 0
M  V30 3167 H  -11.9170 0.5935 25.3531 0
M  V30 3168 H  -14.8727 0.9636 21.6390 0
M  V30 3169 H  -16.3963 -0.7554 21.6706 0
M  V30 3170 H  -17.5864 0.5331 21.7504 0
M  V30 3171 H  -17.6426 -1.3204 23.6826 0
M  V30 3172 H  -17.6991 0.3767 24.1600 0
M  V30 3173 H  -15.8614 -0.3145 25.4270 0
M  V30 3174 H  -15.2862 -1.4518 24.1988 0
M  V30 3175 H  -15.3067 2.7854 24.4189 0
M  V30 3176 H  -16.9510 4.9244 23.4788 0
M  V30 3177 H  -14.8525 4.6334 25.6532 0
M  V30 3178 H  -17.8209 5.2963 25.7760 0
M  V30 3179 H  -16.7660 5.1977 27.1536 0
M  V30 3180 H  -15.3592 6.9348 26.4965 0
M  V30 3181 H  -14.4748 6.9722 24.9975 0
M  V30 3182 H  -16.2122 7.2881 24.9992 0
M  V30 3183 H  -17.7057 3.0862 27.2528 0
M  V30 3184 H  -17.8676 2.9364 25.5077 0
M  V30 3185 H  -16.2990 2.7057 26.2734 0
M  V30 3186 H  -13.4355 4.2273 23.2706 0
M  V30 3187 H  -12.7311 6.7003 22.0248 0
M  V30 3188 H  -11.0258 4.2464 21.6349 0
M  V30 3189 H  -11.3542 4.6622 23.2787 0
M  V30 3190 H  -9.2575 5.6849 22.6027 0
M  V30 3191 H  -10.4151 6.9267 22.9716 0
M  V30 3192 H  -13.7854 3.5012 20.7860 0
M  V30 3193 H  -13.2475 3.9570 18.0384 0
M  V30 3194 H  -15.2189 2.1630 19.4746 0
M  V30 3195 H  -12.7502 1.6742 19.5719 0
M  V30 3196 H  -12.7372 1.5258 17.8384 0
M  V30 3197 H  -15.7420 0.9847 17.3802 0
M  V30 3198 H  -16.3357 2.6056 17.2850 0
M  V30 3199 H  -14.8484 2.1802 16.4417 0
M  V30 3200 H  -12.9776 -0.6263 19.3895 0
M  V30 3201 H  -14.6855 -0.2092 19.4016 0
M  V30 3202 H  -13.8700 -0.5459 17.8763 0
M  V30 3203 H  -16.2077 4.6551 20.0048 0
M  V30 3204 H  -17.7454 5.7099 17.8831 0
M  V30 3205 H  -17.8581 6.0804 20.8956 0
M  V30 3206 H  -18.8530 5.0641 19.8852 0
M  V30 3207 H  -19.7132 7.2479 18.7797 0
M  V30 3208 H  -18.8726 8.1249 20.0340 0
M  V30 3209 H  -20.2305 6.9394 21.7696 0
M  V30 3210 H  -21.1136 6.1294 20.4941 0
M  V30 3211 H  -21.7884 8.4047 19.5613 0
M  V30 3212 H  -20.9769 9.1725 20.9149 0
M  V30 3213 H  -22.4793 8.0193 22.3811 0
M  V30 3214 H  -23.3017 8.9439 21.2916 0
M  V30 3215 H  -23.2352 7.3077 21.1003 0
M  V30 3216 H  -15.5012 7.3624 20.1709 0
M  V30 3217 H  -16.1028 9.9574 19.1762 0
M  V30 3218 H  -13.6430 9.0887 20.7553 0
M  V30 3219 H  -15.1925 9.2385 21.5058 0
M  V30 3220 H  -13.6884 11.5165 20.0960 0
M  V30 3221 H  -13.7252 11.2480 21.8132 0
M  V30 3222 H  -13.5803 7.5835 18.3012 0
M  V30 3223 H  -12.1634 9.2841 16.4733 0
M  V30 3224 H  -12.3370 6.2684 16.8346 0
M  V30 3225 H  -11.1621 7.3505 18.3606 0
M  V30 3226 H  -10.3264 6.0737 15.3345 0
M  V30 3227 H  -11.7618 6.4907 14.4259 0
M  V30 3228 H  -10.5690 7.7347 14.8039 0
M  V30 3229 H  -15.0247 7.1139 16.1786 0
M  V30 3230 H  -15.2171 7.4236 13.3090 0
M  V30 3231 H  -17.6111 6.4163 13.9439 0
M  V30 3232 H  -16.8396 6.0368 15.4391 0
M  V30 3233 H  -13.9580 5.4765 13.9454 0
M  V30 3234 H  -18.0100 4.1119 13.5078 0
M  V30 3235 H  -13.1699 3.4327 12.8576 0
M  V30 3236 H  -17.1918 2.0701 12.3867 0
M  V30 3237 H  -14.7711 1.7495 12.0423 0
M  V30 3238 H  -16.1506 9.5911 15.8415 0
M  V30 3239 H  -18.2131 10.9490 14.3829 0
M  V30 3240 H  -17.4468 12.9437 15.7764 0
M  V30 3241 H  -16.2681 11.9143 16.5282 0
M  V30 3242 H  -18.1163 10.4822 17.4150 0
M  V30 3243 H  -19.2948 11.3930 16.5023 0
M  V30 3244 H  -18.6580 13.4652 17.7792 0
M  V30 3245 H  -17.5043 12.5323 18.6961 0
M  V30 3246 H  -19.3938 11.1128 19.5985 0
M  V30 3247 H  -20.5416 12.0890 18.6932 0
M  V30 3248 H  -19.7981 14.0022 19.9370 0
M  V30 3249 H  -20.3517 12.8336 20.9448 0
M  V30 3250 H  -18.7266 13.0703 20.7799 0
M  V30 3251 H  -14.6458 11.0252 14.1835 0
M  V30 3252 H  -14.4555 13.2678 12.4098 0
M  V30 3253 H  -12.1756 12.3417 11.9293 0
M  V30 3254 H  -12.5385 10.9350 12.8709 0
M  V30 3255 H  -11.8109 14.5610 12.9504 0
M  V30 3256 H  -12.5921 11.0662 15.3410 0
M  V30 3257 H  -10.9079 15.7191 14.9466 0
M  V30 3258 H  -11.6748 12.2075 17.3360 0
M  V30 3259 H  -10.4204 15.5675 17.1945 0
M  V30 3260 H  -14.9830 9.7474 11.8915 0
M  V30 3261 H  -14.5732 9.9078 9.0286 0
M  V30 3262 H  -15.8191 7.7383 10.7593 0
M  V30 3263 H  -13.3752 8.1873 11.1265 0
M  V30 3264 H  -13.0816 7.9068 9.4347 0
M  V30 3265 H  -15.5621 6.2120 8.7662 0
M  V30 3266 H  -16.7463 7.4482 8.4726 0
M  V30 3267 H  -15.1356 7.6006 7.7759 0
M  V30 3268 H  -12.8172 5.9769 11.3370 0
M  V30 3269 H  -14.4952 5.6830 10.8986 0
M  V30 3270 H  -13.2362 5.5932 9.6712 0
M  V30 3271 H  -17.4821 9.7008 11.1730 0
M  V30 3272 H  -19.3349 9.6264 9.0925 0
M  V30 3273 H  -20.9656 10.4048 10.9724 0
M  V30 3274 H  -19.5872 10.3784 12.0434 0
M  V30 3275 H  -21.6217 7.0949 11.9245 0
M  V30 3276 H  -22.1270 8.7625 11.9760 0
M  V30 3277 H  -17.9497 12.5099 10.8310 0
M  V30 3278 H  -19.7079 14.3759 9.5580 0
M  V30 3279 H  -18.5096 14.9131 11.6525 0
M  V30 3280 H  -17.8831 16.6721 9.5234 0
M  V30 3281 H  -16.1919 15.6332 11.7062 0
M  V30 3282 H  -16.1931 14.0269 11.0020 0
M  V30 3283 H  -15.9919 15.4312 9.9714 0
M  V30 3284 H  -16.5226 13.0156 8.6081 0
M  V30 3285 H  -16.1229 14.7728 6.3735 0
M  V30 3286 H  -14.8851 12.1564 7.2647 0
M  V30 3287 H  -13.1354 12.4059 5.4682 0
M  V30 3288 H  -14.6874 11.9123 4.8370 0
M  V30 3289 H  -14.1603 13.5887 4.6653 0
M  V30 3290 H  -12.8963 13.5191 7.6536 0
M  V30 3291 H  -13.6593 14.9268 6.9206 0
M  V30 3292 H  -14.2618 14.2937 8.4426 0
M  V30 3293 H  -17.3909 11.3851 6.6554 0
M  V30 3294 H  -17.9027 11.0600 3.8887 0
M  V30 3295 H  -19.0855 9.7013 6.3324 0
M  V30 3296 H  -19.9506 7.9094 4.7118 0
M  V30 3297 H  -20.8694 9.3884 4.6908 0
M  V30 3298 H  -19.7052 9.0476 3.4073 0
M  V30 3299 H  -17.6972 7.7964 5.6715 0
M  V30 3300 H  -17.1620 8.6366 4.2188 0
M  V30 3301 H  -16.6764 9.2173 5.8031 0
M  V30 3302 H  -20.0788 12.2104 6.5706 0
M  V30 3303 H  -22.3430 12.4578 4.9385 0
M  V30 3304 H  -22.3568 12.3440 7.4377 0
M  V30 3305 H  -23.3690 13.5752 6.7547 0
M  V30 3306 H  -20.8661 13.9241 7.9929 0
M  V30 3307 H  -19.6796 14.7908 5.4651 0
M  V30 3308 H  -21.0136 16.9670 4.1089 0
M  V30 3309 H  -18.6543 17.9664 4.0571 0
M  V30 3310 H  -18.1061 16.5436 4.9315 0
M  V30 3311 H  -19.5989 16.8001 6.9727 0
M  V30 3312 H  -18.7222 14.3867 3.0717 0
M  V30 3313 H  -18.4817 15.2863 0.3595 0
M  V30 3314 H  -17.9136 12.7299 0.0380 0
M  V30 3315 H  -18.0721 12.6128 1.7644 0
M  V30 3316 H  -16.2901 14.3742 1.9952 0
M  V30 3317 H  -14.8365 12.6782 2.2128 0
M  V30 3318 H  -15.9898 11.6191 1.4284 0
M  V30 3319 H  -14.7375 12.3933 0.4829 0
M  V30 3320 H  -14.9298 14.3611 -0.4802 0
M  V30 3321 H  -16.6069 14.5878 -0.9310 0
M  V30 3322 H  -15.8420 15.6869 0.2068 0
M  V30 3323 H  -20.5561 12.7756 1.8840 0
M  V30 3324 H  -22.0857 12.0634 -0.3274 0
M  V30 3325 H  -22.5431 12.0130 2.6645 0
M  V30 3326 H  -24.5130 10.5153 2.3782 0
M  V30 3327 H  -24.8432 12.1739 1.9722 0
M  V30 3328 H  -24.5947 10.9814 0.6851 0
M  V30 3329 H  -22.2263 9.6110 2.4521 0
M  V30 3330 H  -22.2696 9.7036 0.7018 0
M  V30 3331 H  -20.9145 10.3882 1.5817 0
M  V30 3332 H  -22.5585 14.8229 1.9247 0
M  V30 3333 H  -25.0953 15.6132 0.9537 0
M  V30 3334 H  -22.8866 17.2059 2.3231 0
M  V30 3335 H  -24.2064 16.3549 3.0449 0
M  V30 3336 H  -26.6108 17.1291 2.6984 0
M  V30 3337 H  -23.2234 19.4635 1.3942 0
M  V30 3338 H  -28.0459 19.1131 2.4675 0
M  V30 3339 H  -24.6898 21.4276 1.1724 0
M  V30 3340 H  -27.0881 21.2562 1.7113 0
M  V30 3341 H  -21.8464 16.9992 0.1864 0
M  V30 3342 H  -22.7696 18.7867 -1.7634 0
M  V30 3343 H  -20.0274 17.5807 -1.2551 0
M  V30 3344 H  -19.0598 19.5020 -2.5684 0
M  V30 3345 H  -19.8842 18.3456 -3.5858 0
M  V30 3346 H  -20.6704 19.8708 -3.1737 0
M  V30 3347 H  -19.5357 19.7518 -0.1881 0
M  V30 3348 H  -21.1523 20.3356 -0.5708 0
M  V30 3349 H  -20.9354 19.0214 0.5730 0
M  V30 3350 H  -21.3281 15.4992 -2.1956 0
M  V30 3351 H  -21.5846 15.4766 -5.0567 0
M  V30 3352 H  -21.1094 13.0194 -4.7586 0
M  V30 3353 H  -21.2980 13.1959 -3.0395 0
M  V30 3354 H  -19.3292 14.7360 -2.9802 0
M  V30 3355 H  -18.0727 12.9362 -2.5640 0
M  V30 3356 H  -19.3018 11.9225 -3.2932 0
M  V30 3357 H  -17.9622 12.4990 -4.2620 0
M  V30 3358 H  -17.9183 14.4440 -5.3378 0
M  V30 3359 H  -19.5561 14.6534 -5.9259 0
M  V30 3360 H  -18.8388 15.8581 -4.8649 0
M  V30 3361 H  -23.7846 14.6595 -2.4144 0
M  V30 3362 H  -25.8753 13.7263 -2.3504 0
M  V30 3363 H  -25.6294 13.0509 -3.9495 0
M  V30 3364 H  -25.7225 16.4856 -2.6643 0
M  V30 3365 H  -28.1804 17.0616 -3.9434 0
M  V30 3366 H  -27.8085 19.3883 -3.5140 0
M  V30 3367 H  -25.4040 19.6538 -4.0163 0
M  V30 3368 H  -24.9846 18.7780 -2.5798 0
M  V30 3369 H  -27.8787 19.3464 -1.1106 0
M  V30 3370 H  -28.6181 17.8714 -1.6949 0
M  V30 3371 H  -26.9896 17.8389 -1.0321 0
M  V30 3372 H  -24.8623 21.3250 -2.4474 0
M  V30 3373 H  -26.6201 21.3626 -2.5398 0
M  V30 3374 H  -25.8203 20.5874 -1.1734 0
M  V30 3375 H  -24.8094 17.4794 -5.1148 0
M  V30 3376 H  -25.6082 18.9171 -7.4790 0
M  V30 3377 H  -23.0312 17.5473 -6.6600 0
M  V30 3378 H  -23.7589 19.7132 -5.5363 0
M  V30 3379 H  -23.6737 20.4961 -7.0831 0
M  V30 3380 H  -21.8906 18.6296 -8.6205 0
M  V30 3381 H  -22.9973 17.3907 -9.1306 0
M  V30 3382 H  -23.4609 19.0868 -9.2680 0
M  V30 3383 H  -21.6290 20.6184 -5.4017 0
M  V30 3384 H  -21.2176 19.0293 -6.0319 0
M  V30 3385 H  -21.2969 20.4191 -7.1165 0
M  V30 3386 H  -24.7812 15.4691 -6.8231 0
M  V30 3387 H  -25.0117 13.5750 -8.0530 0
M  V30 3388 H  -24.8128 14.5494 -9.4999 0
M  V30 3389 H  -27.3908 14.4257 -6.9203 0
M  V30 3390 H  -29.3190 13.2227 -8.6289 0
M  V30 3391 H  -30.9283 13.8337 -6.7780 0
M  V30 3392 H  -29.6315 14.6454 -5.9384 0
M  V30 3393 H  -28.6597 11.6006 -4.3922 0
M  V30 3394 H  -28.6704 13.3449 -4.3927 0
M  V30 3395 H  -28.6000 16.6802 -7.8498 0
M  V30 3396 H  -30.9364 17.7492 -9.1127 0
M  V30 3397 H  -28.2187 19.0160 -8.5331 0
M  V30 3398 H  -29.6485 19.0686 -7.5071 0
M  V30 3399 H  -29.3390 20.2389 -10.0594 0
M  V30 3400 H  -27.6442 16.9657 -10.3384 0
M  V30 3401 H  -28.0071 17.9869 -12.9723 0
M  V30 3402 H  -26.1800 15.7540 -11.9449 0
M  V30 3403 H  -25.7184 17.7102 -11.0562 0
M  V30 3404 H  -24.7797 16.1903 -13.9803 0
M  V30 3405 H  -26.3238 15.5008 -14.4282 0
M  V30 3406 H  -26.0447 17.2263 -14.6333 0
M  V30 3407 H  -28.4065 14.6578 -11.6073 0
M  V30 3408 H  -29.3432 13.3854 -13.9113 0
M  V30 3409 H  -29.7704 12.8846 -10.9407 0
M  V30 3410 H  -28.5610 12.1750 -11.9676 0
M  V30 3411 H  -31.5516 11.6287 -12.0250 0
M  V30 3412 H  -30.4419 9.6624 -13.6487 0
M  V30 3413 H  -31.3075 11.0738 -14.2051 0
M  V30 3414 H  -29.5473 11.0839 -14.1458 0
M  V30 3415 H  -31.1746 9.6525 -10.9122 0
M  V30 3416 H  -29.5347 9.4641 -11.5093 0
M  V30 3417 H  -29.8716 10.6017 -10.2169 0
M  V30 3418 H  -31.2335 15.0669 -11.3422 0
M  V30 3419 H  -33.7502 14.4536 -12.4250 0
M  V30 3420 H  -32.9532 16.7587 -10.5843 0
M  V30 3421 H  -33.1854 15.1107 -10.0618 0
M  V30 3422 H  -35.3726 16.8251 -11.2472 0
M  V30 3423 H  -36.7047 14.7260 -10.1525 0
M  V30 3424 H  -36.1420 14.7054 -11.8169 0
M  V30 3425 H  -35.2179 13.8886 -10.5717 0
M  V30 3426 H  -36.2148 17.0721 -9.0375 0
M  V30 3427 H  -35.1649 15.8022 -8.3988 0
M  V30 3428 H  -34.4874 17.3527 -8.8651 0
M  V30 3429 H  -31.6764 17.3594 -12.8978 0
M  V30 3430 H  -33.4658 18.7930 -14.5546 0
M  V30 3431 H  -30.4409 18.8218 -14.2701 0
M  V30 3432 H  -31.5753 19.8944 -13.5049 0
M  V30 3433 H  -33.3024 20.8752 -15.6871 0
M  V30 3434 H  -29.0592 20.0622 -15.6886 0
M  V30 3435 H  -32.9938 22.4868 -17.5335 0
M  V30 3436 H  -28.7541 21.6886 -17.5307 0
M  V30 3437 H  -31.4755 23.5950 -18.8680 0
M  V30 3438 H  -30.9871 16.3227 -15.3443 0
M  V30 3439 H  -31.1786 16.5289 -18.1402 0
M  V30 3440 H  -30.1233 14.4858 -16.1931 0
M  V30 3441 H  -27.9642 15.0933 -17.0442 0
M  V30 3442 H  -28.8394 16.5187 -16.6004 0
M  V30 3443 H  -29.0994 13.1315 -18.0500 0
M  V30 3444 H  -30.8169 12.8983 -17.8246 0
M  V30 3445 H  -30.2386 13.8877 -19.1634 0
M  V30 3446 H  -27.5019 16.4778 -18.8423 0
M  V30 3447 H  -28.9560 15.7519 -19.5137 0
M  V30 3448 H  -29.0338 17.3341 -18.7486 0
M  V30 3449 H  -33.0570 14.4136 -15.9133 0
M  V30 3450 H  -34.3345 12.9335 -17.9931 0
M  V30 3451 H  -35.1587 13.4754 -15.1303 0
M  V30 3452 H  -34.3468 11.3132 -14.5498 0
M  V30 3453 H  -33.0827 12.1872 -15.3421 0
M  V30 3454 H  -36.6425 11.3925 -15.3962 0
M  V30 3455 H  -37.2644 12.8659 -16.1080 0
M  V30 3456 H  -36.5405 11.6260 -17.1273 0
M  V30 3457 H  -33.5871 9.6447 -15.9340 0
M  V30 3458 H  -34.6711 10.3514 -17.1163 0
M  V30 3459 H  -32.9637 10.7630 -17.1456 0
M  V30 3460 H  -35.2629 15.9851 -16.3105 0
M  V30 3461 H  -37.8088 16.1204 -17.7108 0
M  V30 3462 H  -37.8890 18.4199 -16.5827 0
M  V30 3463 H  -36.3409 18.0645 -15.8679 0
M  V30 3464 H  -39.6263 16.2217 -16.3872 0
M  V30 3465 H  -36.6049 17.5003 -13.5755 0
M  V30 3466 H  -40.8416 15.0922 -14.5646 0
M  V30 3467 H  -37.8364 16.3625 -11.7532 0
M  V30 3468 H  -40.8637 14.5342 -12.3240 0
M  V30 3469 H  -34.5524 17.3556 -18.3667 0
M  V30 3470 H  -35.4567 19.3270 -20.2543 0
M  V30 3471 H  -32.6819 18.0653 -19.9754 0
M  V30 3472 H  -33.2665 19.3531 -18.9636 0
M  V30 3473 H  -32.9061 19.6360 -21.9636 0
M  V30 3474 H  -31.8215 20.2100 -20.7272 0
M  V30 3475 H  -33.8225 21.5562 -19.7672 0
M  V30 3476 H  -34.6723 21.1574 -21.2407 0
M  V30 3477 H  -32.9218 22.2752 -22.6115 0
M  V30 3478 H  -32.0190 22.6683 -21.1594 0
M  V30 3479 H  -33.8936 23.9584 -20.4066 0
M  V30 3480 H  -33.3517 24.4877 -21.8713 0
M  V30 3481 H  -34.7332 23.5940 -21.7775 0
M  V30 3482 H  -34.4132 15.9317 -20.4668 0
M  V30 3483 H  -34.7408 15.7340 -23.3769 0
M  V30 3484 H  -34.4403 13.5471 -21.2471 0
M  V30 3485 H  -33.0880 14.4248 -21.8964 0
M  V30 3486 H  -32.6971 12.3033 -24.6511 0
M  V30 3487 H  -31.9922 13.4220 -23.5160 0
M  V30 3488 H  -36.6117 15.3422 -24.4111 0
M  V30 3489 H  -39.0967 15.1180 -22.9199 0
M  V30 3490 H  -37.0248 12.8783 -24.7280 0
M  V30 3491 H  -38.9542 10.7843 -25.0063 0
M  V30 3492 H  -37.0057 9.3692 -25.6218 0
M  V30 3493 H  -35.9020 10.6316 -25.1102 0
M  V30 3494 H  -35.9974 10.5153 -27.6909 0
M  V30 3495 H  -36.4939 11.5663 -22.5073 0
M  V30 3496 H  -37.0421 9.1589 -20.9493 0
M  V30 3497 H  -35.5336 10.3087 -19.2703 0
M  V30 3498 H  -35.4162 11.6630 -20.3476 0
M  V30 3499 H  -34.2326 10.3726 -22.0134 0
M  V30 3500 H  -34.7067 8.8557 -21.2872 0
M  V30 3501 H  -31.3552 11.6187 -19.7229 0
M  V30 3502 H  -32.2124 11.8393 -21.2471 0
M  V30 3503 H  -33.0368 12.1672 -19.7142 0
M  V30 3504 H  -38.3701 12.4319 -21.0739 0
M  V30 3505 H  -39.6349 12.3686 -18.4969 0
M  V30 3506 H  -40.5772 11.2721 -21.7668 0
M  V30 3507 H  -43.2227 10.3232 -20.9395 0
M  V30 3508 H  -40.0039 8.9112 -21.6889 0
M  V30 3509 H  -39.1511 6.8172 -21.5431 0
M  V30 3510 H  -40.7976 6.2117 -21.6125 0
M  V30 3511 H  -40.6334 5.0215 -17.3004 0
M  V30 3512 H  -40.0141 2.7279 -17.0958 0
M  V30 3513 H  -38.5421 2.9542 -18.0341 0
M  V30 3514 H  -41.3804 2.8855 -19.0618 0
M  V30 3515 H  -40.0072 1.9590 -19.6697 0
M  V30 3516 H  -39.0106 3.9776 -20.6256 0
M  V30 3517 H  -40.7393 4.2055 -20.9063 0
M  V30 3518 H  -37.6958 6.2737 -18.6233 0
M  V30 3519 H  -36.0215 6.2139 -16.2911 0
M  V30 3520 H  -34.7623 8.0178 -17.4936 0
M  V30 3521 H  -36.0550 8.1415 -18.6638 0
M  V30 3522 H  -33.2675 5.1228 -18.8904 0
M  V30 3523 H  -33.3986 6.0947 -17.4486 0
M  V30 3524 H  -38.9518 7.9472 -16.8659 0
M  V30 3525 H  -38.4642 10.1849 -15.1462 0
M  V30 3526 H  -40.3149 10.0362 -16.7714 0
M  V30 3527 H  -41.4071 10.4090 -13.9558 0
M  V30 3528 H  -42.1406 10.9700 -15.4215 0
M  V30 3529 H  -42.2805 8.7122 -16.4482 0
M  V30 3530 H  -40.9266 7.5984 -16.3880 0
M  V30 3531 H  -41.7090 8.0879 -14.8987 0
M  V30 3532 H  -41.0948 12.9113 -14.8214 0
M  V30 3533 H  -39.8084 12.1122 -13.9297 0
M  V30 3534 H  -39.7291 12.2280 -15.6908 0
M  V30 3535 H  -39.0202 6.7554 -14.5270 0
M  V30 3536 H  -39.6272 7.0563 -11.7102 0
M  V30 3537 H  -39.2566 4.6462 -11.5965 0
M  V30 3538 H  -38.5210 4.6235 -13.1715 0
M  V30 3539 H  -40.6645 5.2201 -14.2443 0
M  V30 3540 H  -41.8857 2.9930 -13.0343 0
M  V30 3541 H  -40.7469 2.9805 -14.3697 0
M  V30 3542 H  -40.1766 2.7777 -12.7238 0
M  V30 3543 H  -42.7228 4.9016 -12.4104 0
M  V30 3544 H  -41.5608 5.8265 -11.4852 0
M  V30 3545 H  -42.1359 6.4233 -13.0401 0
M  V30 3546 H  -36.6746 7.0422 -13.6667 0
M  V30 3547 H  -34.8907 6.7525 -11.3994 0
M  V30 3548 H  -34.4403 7.5089 -14.2843 0
M  V30 3549 H  -34.8212 5.1057 -13.6288 0
M  V30 3550 H  -33.3877 5.1857 -12.6469 0
M  V30 3551 H  -32.0182 7.6105 -13.9318 0
M  V30 3552 H  -32.7927 8.9131 -13.0972 0
M  V30 3553 H  -32.2353 7.5055 -12.1859 0
M  V30 3554 H  -33.3578 4.3248 -15.2327 0
M  V30 3555 H  -33.0476 6.0268 -15.5283 0
M  V30 3556 H  -31.9633 5.1028 -14.4943 0
M  V30 3557 H  -36.5830 9.4613 -13.0033 0
M  V30 3558 H  -35.2149 11.5406 -11.5188 0
M  V30 3559 H  -37.4991 12.7712 -12.1813 0
M  V30 3560 H  -36.2508 12.4514 -13.3608 0
M  V30 3561 H  -37.6648 11.4075 -13.2694 0
M  V30 3562 H  -38.0569 9.4589 -10.9021 0
M  V30 3563 H  -38.8166 10.7091 -8.4285 0
M  V30 3564 H  -39.3677 7.9399 -9.5879 0
M  V30 3565 H  -40.4014 9.3483 -9.6756 0
M  V30 3566 H  -39.6578 7.8664 -7.3771 0
M  V30 3567 H  -36.5440 8.0595 -9.2836 0
M  V30 3568 H  -35.7868 7.3869 -6.6233 0
M  V30 3569 H  -34.3580 7.0366 -9.2936 0
M  V30 3570 H  -35.4282 5.9315 -8.5345 0
M  V30 3571 H  -33.6337 6.1079 -6.5315 0
M  V30 3572 H  -32.8660 3.9800 -7.0999 0
M  V30 3573 H  -34.4298 4.0494 -7.8852 0
M  V30 3574 H  -32.9649 4.2636 -8.8353 0
M  V30 3575 H  -31.4255 5.9626 -8.4100 0
M  V30 3576 H  -32.2314 7.4983 -8.6576 0
M  V30 3577 H  -31.6376 7.0639 -7.0684 0
M  V30 3578 H  -34.4557 9.7550 -9.0082 0
M  V30 3579 H  -32.3161 10.7018 -7.4479 0
M  V30 3580 H  -32.3051 12.6007 -9.0056 0
M  V30 3581 H  -32.6351 11.1255 -9.9011 0
M  V30 3582 H  -33.9425 12.2355 -9.5359 0
M  V30 3583 H  -35.7791 11.6553 -7.4669 0
M  V30 3584 H  -35.4907 13.8001 -5.5697 0
M  V30 3585 H  -38.0792 13.1668 -5.3175 0
M  V30 3586 H  -37.7728 12.1909 -6.7249 0
M  V30 3587 H  -36.8826 14.2907 -7.8397 0
M  V30 3588 H  -38.9086 14.4840 -8.7980 0
M  V30 3589 H  -39.5282 13.3735 -7.5948 0
M  V30 3590 H  -39.6739 15.0973 -7.3407 0
M  V30 3591 H  -38.1500 16.3756 -6.3845 0
M  V30 3592 H  -37.3432 15.4248 -5.1530 0
M  V30 3593 H  -36.4291 16.0807 -6.4935 0
M  V30 3594 H  -36.1970 10.2830 -5.2359 0
M  V30 3595 H  -36.2076 8.9182 -3.4009 0
M  V30 3596 H  -36.7003 10.2818 -2.4102 0
M  V30 3597 H  -33.7143 9.9495 -4.4161 0
M  V30 3598 H  -31.9224 9.4587 -2.2308 0
M  V30 3599 H  -30.2273 10.2204 -4.1158 0
M  V30 3600 H  -31.6113 10.1987 -5.1585 0
M  V30 3601 H  -32.7916 12.4419 -4.0892 0
M  V30 3602 H  -31.0505 14.1693 -2.6789 0
M  V30 3603 H  -33.6005 14.7134 -4.2635 0
M  V30 3604 H  -32.0020 14.5701 -4.9357 0
M  V30 3605 H  -32.9180 16.7756 -3.0755 0
M  V30 3606 H  -30.5092 17.6490 -4.1602 0
M  V30 3607 H  -30.7123 16.9689 -2.5577 0
M  V30 3608 H  -30.1807 15.9460 -3.8850 0
M  V30 3609 H  -33.5421 17.9455 -4.8890 0
M  V30 3610 H  -32.0493 17.6112 -5.7546 0
M  V30 3611 H  -33.3828 16.4833 -5.8426 0
M  V30 3612 H  -34.4490 13.2223 -2.0910 0
M  V30 3613 H  -34.9673 14.9341 0.1007 0
M  V30 3614 H  -36.1440 12.2707 -0.7303 0
M  V30 3615 H  -36.7527 13.8541 -1.1330 0
M  V30 3616 H  -36.7049 12.6170 1.6500 0
M  V30 3617 H  -38.4241 14.7954 1.8431 0
M  V30 3618 H  -36.7729 14.7446 2.4229 0
M  V30 3619 H  -37.1324 15.4378 0.8484 0
M  V30 3620 H  -38.6965 11.7073 1.2320 0
M  V30 3621 H  -39.3691 13.2074 0.6156 0
M  V30 3622 H  -38.5093 12.1260 -0.4584 0
M  V30 3623 H  -33.4561 11.6878 -0.1575 0
M  V30 3624 H  -33.2971 11.1247 2.6091 0
M  V30 3625 H  -31.3739 10.1162 0.4697 0
M  V30 3626 H  -32.9540 9.4454 0.6912 0
M  V30 3627 H  -29.5756 9.6599 2.3814 0
M  V30 3628 H  -33.2970 7.7717 2.9875 0
M  V30 3629 H  -29.2946 7.9259 4.1935 0
M  V30 3630 H  -31.0246 12.7319 0.3459 0
M  V30 3631 H  -28.9227 13.1481 2.1605 0
M  V30 3632 H  -29.7993 14.5384 -0.3876 0
M  V30 3633 H  -28.0358 13.3877 -1.4723 0
M  V30 3634 H  -28.9467 12.2250 -0.5730 0
M  V30 3635 H  -27.5072 15.6183 -0.5060 0
M  V30 3636 H  -28.6204 16.3649 0.6230 0
M  V30 3637 H  -27.3455 15.3138 1.2214 0
M  V30 3638 H  -26.4564 11.9117 -0.4420 0
M  V30 3639 H  -26.3546 13.3747 0.5277 0
M  V30 3640 H  -27.2461 11.9879 1.1288 0
M  V30 3641 H  -31.7149 15.3332 1.3893 0
M  V30 3642 H  -30.7096 17.3464 3.2069 0
M  V30 3643 H  -31.9076 17.7561 1.0426 0
M  V30 3644 H  -34.3261 17.8057 0.9127 0
M  V30 3645 H  -33.8001 16.1908 1.3558 0
M  V30 3646 H  -34.4979 17.2471 2.5739 0
M  V30 3647 H  -32.9425 19.8309 1.7198 0
M  V30 3648 H  -33.1019 19.3079 3.3835 0
M  V30 3649 H  -31.5028 19.5828 2.6937 0
M  V30 3650 H  -32.4694 14.4816 3.9125 0
M  V30 3651 H  -33.4485 15.7241 6.4464 0
M  V30 3652 H  -35.1026 14.3498 5.1710 0
M  V30 3653 H  -34.4238 13.2474 7.9362 0
M  V30 3654 H  -35.9373 13.0627 7.1275 0
M  V30 3655 H  -35.0289 11.9203 5.1162 0
M  V30 3656 H  -33.5962 12.5397 4.3327 0
M  V30 3657 H  -33.4958 11.8693 5.9548 0
M  V30 3658 H  -36.5091 14.9504 8.3486 0
M  V30 3659 H  -34.8356 15.4919 8.4863 0
M  V30 3660 H  -35.7623 15.8063 7.0224 0
M  V30 3661 H  -31.3493 13.1243 5.1342 0
M  V30 3662 H  -30.5550 12.0939 7.6362 0
M  V30 3663 H  -29.1877 11.9352 4.9113 0
M  V30 3664 H  -30.3556 10.8092 5.5228 0
M  V30 3665 H  -28.7094 14.2367 5.3238 0
M  V30 3666 H  -26.6048 14.4667 7.1980 0
M  V30 3667 H  -27.9436 18.9469 8.0705 0
M  V30 3668 H  -29.7982 20.2446 7.3816 0
M  V30 3669 H  -30.9269 18.9045 7.5654 0
M  V30 3670 H  -28.8346 19.2306 5.4095 0
M  V30 3671 H  -30.5525 18.9397 5.1780 0
M  V30 3672 H  -30.3066 16.6636 6.1697 0
M  V30 3673 H  -28.9202 16.8709 5.1070 0
M  V30 3674 H  -30.7302 16.7057 8.9294 0
M  V30 3675 H  -30.7553 17.8404 11.6155 0
M  V30 3676 H  -32.4897 15.7413 10.2932 0
M  V30 3677 H  -33.0559 18.5114 11.4362 0
M  V30 3678 H  -34.2925 17.4184 10.9124 0
M  V30 3679 H  -33.8541 15.7615 12.4412 0
M  V30 3680 H  -32.3384 14.9357 12.6227 0
M  V30 3681 H  -32.5408 16.5719 13.2342 0
M  V30 3682 H  -34.1520 18.5826 8.9585 0
M  V30 3683 H  -32.4967 19.0950 9.2484 0
M  V30 3684 H  -32.8298 17.4856 8.5945 0
M  V30 3685 H  -29.8886 14.5631 10.2483 0
M  V30 3686 H  -29.6429 13.4922 12.9173 0
M  V30 3687 H  -28.9522 11.4166 11.9161 0
M  V30 3688 H  -28.6341 12.1364 10.3819 0
M  V30 3689 H  -32.6404 12.4134 10.6073 0
M  V30 3690 H  -31.5487 13.5955 11.2829 0
M  V30 3691 H  -27.2430 14.8075 10.6154 0
M  V30 3692 H  -24.9630 13.9851 12.2065 0
M  V30 3693 H  -25.1709 16.1566 10.0943 0
M  V30 3694 H  -22.7297 15.8582 9.7317 0
M  V30 3695 H  -23.1095 16.5779 11.2731 0
M  V30 3696 H  -22.6553 14.8764 11.1867 0
M  V30 3697 H  -24.3960 14.5512 8.4614 0
M  V30 3698 H  -24.1660 13.2975 9.6812 0
M  V30 3699 H  -25.7837 13.8199 9.2304 0
M  V30 3700 H  -27.2210 16.7245 12.2790 0
M  V30 3701 H  -25.6250 18.4326 13.9552 0
M  V30 3702 H  -27.6641 15.5739 14.5505 0
M  V30 3703 H  -27.7344 15.9341 17.4240 0
M  V30 3704 H  -28.5007 13.4744 15.7946 0
M  V30 3705 H  -29.5404 14.8572 16.0055 0
M  V30 3706 H  -29.5608 14.5977 18.4397 0
M  V30 3707 H  -28.4586 13.2503 18.3589 0
M  V30 3708 H  -30.0791 11.8549 17.2069 0
M  V30 3709 H  -31.1677 13.1787 16.9808 0
M  V30 3710 H  -32.0060 11.8365 18.8439 0
M  V30 3711 H  -31.4389 13.3462 19.5253 0
M  V30 3712 H  -29.4085 12.2491 20.1341 0
M  V30 3713 H  -30.7167 11.4983 20.7989 0
M  V30 3714 H  -29.9497 10.8245 19.5047 0
M  V30 3715 H  -25.4214 14.4065 15.1862 0
M  V30 3716 H  -24.1671 12.8507 17.3019 0
M  V30 3717 H  -24.1354 12.4230 14.7391 0
M  V30 3718 H  -22.8326 11.9396 15.7562 0
M  V30 3719 H  -22.6967 14.5164 14.1679 0
M  V30 3720 H  -20.1076 13.3432 14.4413 0
M  V30 3721 H  -20.7040 14.8214 15.1757 0
M  V30 3722 H  -20.8277 13.2912 16.0322 0
M  V30 3723 H  -21.4061 13.2185 12.4497 0
M  V30 3724 H  -21.8546 11.7320 13.2767 0
M  V30 3725 H  -23.0936 12.7382 12.5417 0
M  V30 3726 H  -23.9052 16.1153 16.0290 0
M  V30 3727 H  -21.4964 16.8066 17.4889 0
M  V30 3728 H  -23.4818 18.3584 15.7642 0
M  V30 3729 H  -21.9501 17.6952 15.3145 0
M  V30 3730 H  -20.9458 19.2801 17.1515 0
M  V30 3731 H  -20.4523 20.9156 15.4985 0
M  V30 3732 H  -20.6514 19.4151 14.6124 0
M  V30 3733 H  -21.9431 20.6108 14.6099 0
M  V30 3734 H  -22.7000 21.4898 16.7376 0
M  V30 3735 H  -23.7508 20.1741 17.2162 0
M  V30 3736 H  -22.4048 20.6432 18.2451 0
M  V30 3737 H  -25.0188 17.5729 17.7929 0
M  V30 3738 H  -24.5700 18.7731 20.4732 0
M  V30 3739 H  -26.8450 19.6793 20.1462 0
M  V30 3740 H  -25.8246 20.1126 18.7814 0
M  V30 3741 H  -27.0148 18.8256 18.6195 0
M  V30 3742 H  -24.6299 17.2990 22.0590 0
M  V30 3743 H  -25.7429 14.7351 21.9092 0
M  V30 3744 H  -25.3722 14.8723 24.5022 0
M  V30 3745 H  -24.7333 16.4532 24.2076 0
M  V30 3746 H  -23.6910 13.8393 23.0028 0
M  V30 3747 H  -22.9798 14.6733 24.3520 0
M  V30 3748 H  -27.2359 17.7254 23.0172 0
M  V30 3749 H  -29.6708 16.3804 23.9685 0
M  V30 3750 H  -28.9029 19.3319 23.7223 0
M  V30 3751 H  -28.7175 18.3826 25.1472 0
M  V30 3752 H  -31.4701 16.1671 22.6898 0
M  V30 3753 H  -31.5548 16.6748 19.8589 0
M  V30 3754 H  -33.6229 15.8482 21.9256 0
M  V30 3755 H  -32.7678 14.8198 20.8149 0
M  V30 3756 H  -35.7846 16.9941 21.1258 0
M  V30 3757 H  -37.1579 17.0484 18.9585 0
M  V30 3758 H  -32.4834 14.6465 18.0140 0
M  V30 3759 H  -36.8331 16.2152 16.2188 0
M  V30 3760 H  -33.0632 14.2243 15.6351 0
M  V30 3761 H  -35.2438 15.0044 14.7253 0
M  V30 3762 H  -32.8825 20.9423 20.8900 0
M  V30 3763 H  -30.7057 21.3241 20.0854 0
M  V30 3764 H  -31.6324 22.2835 18.9398 0
M  V30 3765 H  -29.9484 20.4308 17.9652 0
M  V30 3766 H  -31.5734 20.5199 17.2923 0
M  V30 3767 H  -31.7840 18.2958 17.9730 0
M  V30 3768 H  -30.4560 18.4608 19.0896 0
M  V30 3769 H  -34.1502 19.1260 18.1908 0
M  V30 3770 H  -35.2049 21.3929 16.7579 0
M  V30 3771 H  -36.1125 19.6366 15.2345 0
M  V30 3772 H  -35.5971 18.4124 16.3504 0
M  V30 3773 H  -34.3829 21.1816 14.1411 0
M  V30 3774 H  -33.3052 17.6261 16.3331 0
M  V30 3775 H  -32.1594 21.1744 13.0783 0
M  V30 3776 H  -31.0822 17.6635 15.2658 0
M  V30 3777 H  -30.5318 19.4287 13.6244 0
M  V30 3778 H  -36.6333 19.4616 19.2916 0
M  V30 3779 H  -39.3035 20.7463 18.8149 0
M  V30 3780 H  -38.6657 20.1314 20.3250 0
M  V30 3781 H  -41.0177 19.2318 20.0399 0
M  V30 3782 H  -40.7030 16.4298 20.0194 0
M  V30 3783 H  -43.1232 16.4484 20.6677 0
M  V30 3784 H  -42.1820 17.6098 21.5910 0
M  V30 3785 H  -43.2120 18.1636 20.2729 0
M  V30 3786 H  -42.5013 18.5656 17.7307 0
M  V30 3787 H  -43.7475 16.5092 16.2492 0
M  V30 3788 H  -44.3529 18.1759 14.6968 0
M  V30 3789 H  -43.0032 19.1954 15.0120 0
M  V30 3790 H  -45.0746 18.7025 17.2078 0
M  V30 3791 H  -45.4588 19.7506 15.8745 0
M  V30 3792 H  -40.6095 18.1502 15.9049 0
M  V30 3793 H  -39.9347 17.1553 13.3403 0
M  V30 3794 H  -37.5805 17.8688 14.0733 0
M  V30 3795 H  -38.2361 18.2246 15.6386 0
M  V30 3796 H  -38.0665 20.2701 14.2566 0
M  V30 3797 H  -39.7139 19.9609 14.7101 0
M  V30 3798 H  -37.9910 19.2354 10.4498 0
M  V30 3799 H  -37.0179 19.6512 11.8675 0
M  V30 3800 H  -37.7544 18.0450 11.7301 0
M  V30 3801 H  -39.5823 15.6057 16.5566 0
M  V30 3802 H  -37.7827 13.5992 15.4355 0
M  V30 3803 H  -39.2067 13.3064 18.0852 0
M  V30 3804 H  -37.8258 14.3611 17.9288 0
M  V30 3805 H  -41.2812 13.9773 15.6528 0
M  V30 3806 H  -41.8611 11.2183 14.9001 0
M  V30 3807 H  -44.0519 12.2095 14.1784 0
M  V30 3808 H  -43.5198 13.7944 14.6550 0
M  V30 3809 H  -43.3173 13.0572 17.0080 0
M  V30 3810 H  -43.5369 11.4012 16.4992 0
M  V30 3811 H  -45.8745 11.9395 15.7414 0
M  V30 3812 H  -45.6795 13.5468 16.4013 0
M  V30 3813 H  -45.3539 12.6755 18.6649 0
M  V30 3814 H  -45.2667 11.0158 18.0888 0
M  V30 3815 H  -47.5269 11.1584 17.4093 0
M  V30 3816 H  -47.3598 11.4862 19.0169 0
M  V30 3817 H  -47.6403 12.7158 17.9514 0
M  V30 3818 H  -41.3038 14.3412 13.2656 0
M  V30 3819 H  -41.9799 13.4080 10.6968 0
M  V30 3820 H  -40.2206 15.8335 10.9519 0
M  V30 3821 H  -41.6373 15.8739 11.9356 0
M  V30 3822 H  -41.6700 15.4488 8.9553 0
M  V30 3823 H  -44.2962 16.1323 9.7753 0
M  V30 3824 H  -43.7364 14.5580 9.2563 0
M  V30 3825 H  -43.7745 14.9607 10.9668 0
M  V30 3826 H  -41.7978 17.6904 8.6987 0
M  V30 3827 H  -42.9843 17.8949 9.9787 0
M  V30 3828 H  -41.2789 17.8509 10.3640 0
M  V30 3829 H  -38.7418 13.7580 12.2421 0
M  V30 3830 H  -37.3759 13.5600 9.8002 0
M  V30 3831 H  -36.5416 13.4531 12.6802 0
M  V30 3832 H  -34.1594 13.5192 12.0757 0
M  V30 3833 H  -34.8315 11.9841 11.6188 0
M  V30 3834 H  -34.5460 13.2124 10.3827 0
M  V30 3835 H  -35.9674 15.6522 12.4056 0
M  V30 3836 H  -35.6171 15.4853 10.6803 0
M  V30 3837 H  -37.2677 15.5680 11.2576 0
M  V30 3838 H  -36.5635 8.8618 10.5756 0
M  V30 3839 H  -37.2947 7.5020 12.3752 0
M  V30 3840 H  -38.9112 8.1979 12.3473 0
M  V30 3841 H  -36.4450 9.4186 13.5168 0
M  V30 3842 H  -38.0208 9.2908 14.2765 0
M  V30 3843 H  -38.9581 10.9271 12.7366 0
M  V30 3844 H  -37.3796 11.5826 13.1856 0
M  V30 3845 H  -39.9404 10.1311 10.7089 0
M  V30 3846 H  -41.1480 8.3348 8.9264 0
M  V30 3847 H  -41.7830 11.1382 9.8494 0
M  V30 3848 H  -42.4856 9.6296 10.3127 0
M  V30 3849 H  -43.9183 8.3704 8.5520 0
M  V30 3850 H  -42.6615 12.4509 8.0266 0
M  V30 3851 H  -45.6108 8.6748 6.7960 0
M  V30 3852 H  -44.3776 12.7316 6.2844 0
M  V30 3853 H  -45.8482 10.8615 5.6735 0
M  V30 3854 H  -39.6444 11.5404 8.2037 0
M  V30 3855 H  -40.0203 11.3095 5.3892 0
M  V30 3856 H  -38.1904 13.0352 7.0733 0
M  V30 3857 H  -39.6665 14.8733 6.5439 0
M  V30 3858 H  -40.5516 13.5933 7.2952 0
M  V30 3859 H  -37.7588 14.4643 5.0534 0
M  V30 3860 H  -37.0112 12.8943 4.9122 0
M  V30 3861 H  -38.4841 13.2236 4.0338 0
M  V30 3862 H  -41.7400 14.7050 5.3682 0
M  V30 3863 H  -40.6217 13.9151 4.2711 0
M  V30 3864 H  -41.6849 12.9531 5.2967 0
M  V30 3865 H  -37.2616 10.3293 7.5246 0
M  V30 3866 H  -35.5694 9.6258 5.3511 0
M  V30 3867 H  -35.4532 8.7777 8.2721 0
M  V30 3868 H  -34.8001 10.2243 7.5846 0
M  V30 3869 H  -32.8774 8.9982 7.6162 0
M  V30 3870 H  -33.3897 8.6874 5.9850 0
M  V30 3871 H  -33.7420 5.6693 8.8608 0
M  V30 3872 H  -34.0469 7.3306 9.3052 0
M  V30 3873 H  -37.8526 7.5725 7.3043 0
M  V30 3874 H  -37.2108 5.1684 5.8976 0
M  V30 3875 H  -39.7007 4.6127 6.7941 0
M  V30 3876 H  -39.4167 5.9917 7.8019 0
M  V30 3877 H  -37.6823 3.4907 7.5086 0
M  V30 3878 H  -38.8088 3.7562 8.7965 0
M  V30 3879 H  -37.4728 5.8100 9.4936 0
M  V30 3880 H  -36.3021 5.4384 8.2600 0
M  V30 3881 H  -36.9497 3.8102 10.7549 0
M  V30 3882 H  -35.5107 4.7248 10.4027 0
M  V30 3883 H  -35.0750 3.1986 8.5794 0
M  V30 3884 H  -35.1648 2.4363 10.0363 0
M  V30 3885 H  -36.4253 2.3311 8.9756 0
M  V30 3886 H  -39.6975 7.6964 5.2956 0
M  V30 3887 H  -40.8901 6.3114 3.0887 0
M  V30 3888 H  -41.9061 8.5355 2.5971 0
M  V30 3889 H  -42.0469 8.1497 4.3035 0
M  V30 3890 H  -40.8296 9.3008 3.7647 0
M  V30 3891 H  -38.0893 8.4723 3.4030 0
M  V30 3892 H  -37.7134 8.9308 0.6372 0
M  V30 3893 H  -35.7970 9.1790 3.0006 0
M  V30 3894 H  -36.8889 10.4167 2.3748 0
M  V30 3895 H  -34.8687 10.6812 1.5507 0
M  V30 3896 H  -36.1571 6.4616 2.8290 0
M  V30 3897 H  -34.6465 5.2332 0.7093 0
M  V30 3898 H  -35.6681 3.9184 3.2741 0
M  V30 3899 H  -33.6253 2.4049 2.9512 0
M  V30 3900 H  -34.8503 2.1569 1.7323 0
M  V30 3901 H  -33.4213 3.1021 1.3566 0
M  V30 3902 H  -33.5378 4.4211 4.3081 0
M  V30 3903 H  -32.9561 5.2332 2.8481 0
M  V30 3904 H  -34.2577 5.9204 3.8013 0
M  V30 3905 H  -37.9328 4.8212 1.9873 0
M  V30 3906 H  -39.8061 3.8622 1.1795 0
M  V30 3907 H  -38.8299 2.4806 0.7190 0
M  V30 3908 H  -38.7178 5.9304 -0.4713 0
M  V30 3909 H  -39.9701 5.3988 -2.9752 0
M  V30 3910 H  -38.2305 7.6926 -2.0302 0
M  V30 3911 H  -40.6914 7.2819 -1.2106 0
M  V30 3912 H  -41.1671 7.8088 -2.7847 0
M  V30 3913 H  -38.9248 8.9904 -4.0679 0
M  V30 3914 H  -37.8910 7.6581 -4.4976 0
M  V30 3915 H  -39.6275 7.5320 -4.7483 0
M  V30 3916 H  -41.1747 9.6503 -1.0722 0
M  V30 3917 H  -39.4434 9.4502 -0.8371 0
M  V30 3918 H  -40.0635 10.0291 -2.3787 0
M  V30 3919 H  -36.4721 5.6250 -2.0439 0
M  V30 3920 H  -35.3606 5.3023 -4.5771 0
M  V30 3921 H  -34.3086 4.3917 -1.8466 0
M  V30 3922 H  -33.4964 6.6472 -3.2637 0
M  V30 3923 H  -32.0078 4.6429 -2.8534 0
M  V30 3924 H  -32.8691 3.2743 -3.5224 0
M  V30 3925 H  -32.7363 4.7654 -4.4522 0
M  V30 3926 H  -36.3309 2.7156 -2.2381 0
M  V30 3927 H  -35.3680 0.5872 -3.9300 0
M  V30 3928 H  -36.4157 -0.9139 -2.3606 0
M  V30 3929 H  -35.0857 -0.3708 -0.3690 0
M  V30 3930 H  -34.2308 -0.1807 -1.8963 0
M  V30 3931 H  -34.7942 1.2394 -1.0110 0
M  V30 3932 H  -37.4846 -0.1648 -0.2360 0
M  V30 3933 H  -37.6050 1.4490 -0.9029 0
M  V30 3934 H  -38.4903 0.1125 -1.6396 0
M  V30 3935 H  -38.6128 2.0632 -3.4054 0
M  V30 3936 H  -39.9538 0.0567 -5.0134 0
M  V30 3937 H  -41.8815 1.7546 -4.7777 0
M  V30 3938 H  -40.7817 2.7216 -3.8315 0
M  V30 3939 H  -40.5656 0.7942 -2.2288 0
M  V30 3940 H  -43.4616 1.1936 -2.0436 0
M  V30 3941 H  -42.1688 1.7917 -1.0127 0
M  V30 3942 H  -42.6466 2.6804 -2.4465 0
M  V30 3943 H  -42.8387 -0.8052 -2.7119 0
M  V30 3944 H  -42.0863 -0.6562 -4.2881 0
M  V30 3945 H  -41.1629 -1.2651 -2.9243 0
M  V30 3946 H  -38.4010 3.1790 -5.7006 0
M  V30 3947 H  -39.3978 3.4610 -8.3818 0
M  V30 3948 H  -37.3233 4.9120 -8.6168 0
M  V30 3949 H  -36.9600 4.5982 -6.9274 0
M  V30 3950 H  -39.2786 5.7839 -8.0764 0
M  V30 3951 H  -36.6664 1.6449 -6.9658 0
M  V30 3952 H  -35.5356 0.8082 -9.4607 0
M  V30 3953 H  -34.7946 -1.1612 -7.6691 0
M  V30 3954 H  -35.2812 0.0659 -6.5487 0
M  V30 3955 H  -33.7223 1.6646 -7.7229 0
M  V30 3956 H  -31.7326 0.8785 -6.6073 0
M  V30 3957 H  -33.1031 0.3809 -5.6271 0
M  V30 3958 H  -32.2806 -0.7959 -6.6470 0
M  V30 3959 H  -31.9531 -0.2204 -9.0021 0
M  V30 3960 H  -33.5393 -0.4786 -9.6820 0
M  V30 3961 H  -32.8247 1.1242 -9.7365 0
M  V30 3962 H  -37.9894 -0.6532 -7.2770 0
M  V30 3963 H  -38.3546 -3.0750 -8.6832 0
M  V30 3964 H  -40.6468 -3.0961 -7.5559 0
M  V30 3965 H  -40.2911 -1.5064 -6.9007 0
M  V30 3966 H  -38.6655 -4.3458 -6.5911 0
M  V30 3967 H  -40.3520 -0.0734 -8.8218 0
M  V30 3968 H  -42.0612 -0.8697 -10.8876 0
M  V30 3969 H  -42.5923 1.5646 -11.0230 0
M  V30 3970 H  -42.4818 1.0387 -9.3486 0
M  V30 3971 H  -41.1539 1.9388 -10.0782 0
M  V30 3972 H  -38.7945 0.5686 -11.0899 0
M  V30 3973 H  -38.8540 1.1845 -13.8627 0
M  V30 3974 H  -36.5447 0.6358 -11.9643 0
M  V30 3975 H  -37.2332 2.1917 -12.3294 0
M  V30 3976 H  -35.8166 0.4535 -14.3955 0
M  V30 3977 H  -35.8216 3.2438 -15.1181 0
M  V30 3978 H  -36.5970 1.8997 -15.9397 0
M  V30 3979 H  -37.4683 2.8146 -14.7238 0
M  V30 3980 H  -34.0150 2.3700 -14.0580 0
M  V30 3981 H  -34.7306 2.4755 -12.4535 0
M  V30 3982 H  -34.0438 0.9595 -13.0218 0
M  V30 3983 H  -37.3853 -1.6907 -12.1752 0
M  V30 3984 H  -36.7721 -3.0745 -14.5371 0
M  V30 3985 H  -35.8392 -3.4998 -12.2366 0
M  V30 3986 H  -36.2670 -4.9338 -13.1340 0
M  V30 3987 H  -37.8645 -3.7441 -11.1216 0
M  V30 3988 H  -39.8371 -2.9915 -12.7247 0
M  V30 3989 H  -41.0383 -5.2030 -14.1180 0
M  V30 3990 H  -42.2441 -2.9613 -12.4687 0
M  V30 3991 H  -40.7160 -4.8263 -11.3788 0
M  V30 3992 H  -42.0360 -5.8865 -11.7188 0
M  V30 3993 H  -44.3366 -4.3214 -12.3414 0
M  V30 3994 H  -44.0252 -3.8350 -13.9897 0
M  V30 3995 H  -43.6665 -5.4773 -13.4894 0
M  V30 3996 H  -41.8534 -4.6656 -9.3608 0
M  V30 3997 H  -42.6406 -3.3292 -10.1882 0
M  V30 3998 H  -43.4355 -4.9007 -10.0917 0
M  V30 3999 H  -41.1587 -1.5805 -14.5696 0
M  V30 4000 H  -42.7931 -1.7400 -16.9147 0
M  V30 4001 H  -41.7583 0.6210 -17.4144 0
M  V30 4002 H  -40.9952 0.4706 -15.8554 0
M  V30 4003 H  -39.2889 -2.0132 -16.4735 0
M  V30 4004 H  -38.7209 -1.9994 -19.3021 0
M  V30 4005 H  -36.5423 -3.0347 -18.4947 0
M  V30 4006 H  -37.1483 -3.0177 -16.8728 0
M  V30 4007 H  -35.5841 -1.0945 -17.4237 0
M  V30 4008 H  -37.1499 -0.5855 -16.9109 0
M  V30 4009 H  -37.9080 0.1502 -18.9018 0
M  V30 4010 H  -36.8274 -0.7966 -19.8990 0
M  V30 4011 H  -35.4012 1.0984 -18.2532 0
M  V30 4012 H  -35.3314 3.7134 -20.5744 0
M  V30 4013 H  -34.6142 3.0430 -19.1318 0
M  V30 4014 H  -37.0592 2.6329 -21.6566 0
M  V30 4015 H  -37.6483 1.1132 -21.0365 0
M  V30 4016 H  -39.5598 -4.6322 -16.9829 0
M  V30 4017 H  -39.2654 -6.6563 -19.0052 0
M  V30 4018 H  -40.6926 -6.6997 -16.3251 0
M  V30 4019 H  -39.0726 -7.2500 -16.6556 0
M  V30 4020 H  -38.8869 -9.0530 -18.6610 0
M  V30 4021 H  -42.4326 -8.3196 -16.3161 0
M  V30 4022 H  -39.7833 -11.2595 -19.3383 0
M  V30 4023 H  -43.3285 -10.5284 -16.9889 0
M  V30 4024 H  -42.9885 -12.4367 -18.2352 0
M  V30 4025 H  -42.0413 -4.6304 -17.9334 0
M  V30 4026 H  -44.0135 -5.8847 -19.5484 0
M  V30 4027 H  -45.1597 -3.6188 -19.4266 0
M  V30 4028 H  -43.8245 -3.0607 -18.4661 0
M  V30 4029 H  -44.4153 -4.9048 -16.7375 0
M  V30 4030 H  -45.6158 -5.4270 -17.8757 0
M  V30 4031 H  -47.0121 -3.6537 -17.6303 0
M  V30 4032 H  -45.8368 -2.5374 -17.0052 0
M  V30 4033 H  -47.1393 -4.9352 -15.6883 0
M  V30 4034 H  -47.2716 -3.4483 -12.5437 0
M  V30 4035 H  -47.6907 -4.8396 -13.5045 0
M  V30 4036 H  -46.1433 -1.6730 -13.4644 0
M  V30 4037 H  -45.6604 -1.7020 -15.1311 0
M  V30 4038 H  -41.7693 -3.1349 -20.1988 0
M  V30 4039 H  -42.0993 -3.5246 -23.0959 0
M  V30 4040 H  -42.5155 -0.9727 -23.2707 0
M  V30 4041 H  -43.8631 -1.9130 -22.6482 0
M  V30 4042 H  -42.8464 -0.9856 -21.5463 0
M  V30 4043 H  -40.0618 -3.9264 -23.6323 0
M  V30 4044 H  -37.7686 -3.0764 -22.2027 0
M  V30 4045 H  -38.0031 -4.0617 -25.0854 0
M  V30 4046 H  -35.6927 -4.9682 -24.7462 0
M  V30 4047 H  -35.7447 -3.2232 -24.8224 0
M  V30 4048 H  -35.5617 -4.0278 -23.2640 0
M  V30 4049 H  -37.5174 -6.3460 -24.1658 0
M  V30 4050 H  -37.7477 -5.7107 -22.5372 0
M  V30 4051 H  -39.0753 -5.7218 -23.6856 0
M  V30 4052 H  -39.4489 -1.7186 -25.0221 0
M  V30 4053 H  -37.9240 0.7745 -24.9365 0
M  V30 4054 H  -37.0521 0.5462 -27.2271 0
M  V30 4055 H  -36.5767 -0.9089 -26.3593 0
M  V30 4056 H  -37.9358 -0.9652 -27.4616 0
M  V30 4057 H  -38.7206 1.9299 -27.2621 0
M  V30 4058 H  -41.5229 2.4532 -26.8442 0
M  V30 4059 H  -41.1247 3.9097 -28.9518 0
M  V30 4060 H  -39.4479 3.4023 -28.8812 0
M  V30 4061 H  -39.3565 4.2933 -26.7789 0
M  V30 4062 H  -39.7262 0.5122 -29.2325 0
M  V30 4063 H  -42.0512 -0.0609 -30.8934 0
M  V30 4064 H  -40.1569 0.0100 -32.1652 0
M  V30 4065 H  -40.2922 -1.6990 -31.9428 0
M  V30 4066 H  -38.1071 1.2444 -31.3939 0
M  V30 4067 H  -35.8604 0.6113 -30.3511 0
M  V30 4068 H  -39.1607 -3.6055 -30.0902 0
M  V30 4069 H  -34.6738 -1.6933 -29.0763 0
M  V30 4070 H  -37.4438 -4.9842 -28.9717 0
M  V30 4071 H  -35.2093 -4.0465 -28.4307 0
M  V30 4072 H  -41.0162 -1.3299 -27.9089 0
M  V30 4073 H  -41.7987 -4.0574 -28.2714 0
M  V30 4074 H  -40.2309 -3.0220 -26.4770 0
M  V30 4075 H  -41.3530 -4.2639 -25.9556 0
M  V30 4076 H  -41.6227 -1.4747 -25.6182 0
M  V30 4077 H  -43.5448 -5.0853 -27.0326 0
M  V30 4078 H  -46.1372 -3.5902 -27.0743 0
M  V30 4079 H  -47.0902 -5.9040 -27.2385 0
M  V30 4080 H  -45.4830 -6.5738 -27.1997 0
M  V30 4081 H  -45.0919 -5.0593 -29.4221 0
M  V30 4082 H  -46.8201 -5.0009 -29.3814 0
M  V30 4083 H  -45.3886 -7.6647 -29.2513 0
M  V30 4084 H  -45.6051 -6.9038 -30.7896 0
M  V30 4085 H  -47.7321 -7.6836 -28.7758 0
M  V30 4086 H  -48.3312 -8.3226 -32.7491 0
M  V30 4087 H  -46.8409 -7.5752 -32.2410 0
M  V30 4088 H  -49.9173 -8.9235 -31.1818 0
M  V30 4089 H  -49.6427 -8.6370 -29.4870 0
M  V30 4090 H  -47.1336 -3.3015 -25.0681 0
M  V30 4091 H  -45.8257 -4.0454 -22.6597 0
M  V30 4092 H  -48.5448 -2.8926 -23.2024 0
M  V30 4093 H  -46.4479 -1.4899 -23.3415 0
M  V30 4094 H  -46.1205 -1.8560 -21.6723 0
M  V30 4095 H  -48.8307 -2.6148 -20.6868 0
M  V30 4096 H  -49.0270 -4.2609 -21.2125 0
M  V30 4097 H  -47.5241 -3.7477 -20.4425 0
M  V30 4098 H  -47.3792 0.4011 -22.3713 0
M  V30 4099 H  -48.8137 -0.6148 -22.3127 0
M  V30 4100 H  -47.8057 -0.4238 -20.8786 0
M  V30 4101 H  -45.9555 -5.7958 -21.3736 0
M  V30 4102 H  -46.8471 -8.2268 -22.3746 0
M  V30 4103 H  -46.3560 -9.0773 -20.0060 0
M  V30 4104 H  -46.1110 -7.4251 -19.5135 0
M  V30 4105 H  -43.9565 -8.4258 -19.9169 0
M  V30 4106 H  -44.2370 -7.2496 -21.1718 0
M  V30 4107 H  -44.8994 -9.0284 -22.7636 0
M  V30 4108 H  -44.5623 -10.2309 -21.5367 0
M  V30 4109 H  -42.1817 -9.5659 -21.4797 0
M  V30 4110 H  -42.4934 -8.1869 -22.5198 0
M  V30 4111 H  -41.5989 -9.9891 -23.7052 0
M  V30 4112 H  -42.8518 -10.9776 -23.3033 0
M  V30 4113 H  -43.1205 -9.6539 -24.2681 0
M  V30 4114 H  -48.2673 -6.6746 -19.4319 0
M  V30 4115 H  -50.1547 -8.1712 -18.5512 0
M  V30 4116 H  -50.9061 -7.9329 -20.1220 0
M  V30 4117 H  -52.5828 -6.6978 -19.6266 0
M  V30 4118 H  -53.9006 -4.9862 -19.1635 0
M  V30 4119 H  -52.7132 -3.8562 -20.9727 0
M  V30 4120 H  -51.7811 -1.9826 -21.9095 0
M  V30 4121 H  -50.8198 -1.7623 -20.4555 0
M  V30 4122 H  -51.2206 0.0561 -19.3487 0
M  V30 4123 H  -53.8926 1.3539 -19.4342 0
M  V30 4124 H  -51.9139 0.9218 -17.1711 0
M  V30 4125 H  -53.2936 2.4354 -15.7173 0
M  V30 4126 H  -52.3867 3.3148 -16.9221 0
M  V30 4127 H  -54.1149 3.0389 -17.1524 0
M  V30 4128 H  -53.8971 0.0841 -15.9632 0
M  V30 4129 H  -54.9251 0.4570 -17.3452 0
M  V30 4130 H  -53.6866 -0.7847 -17.4715 0
M  V30 4131 H  -51.1767 4.4474 -21.3152 0
M  V30 4132 H  -53.0187 5.0571 -22.5649 0
M  V30 4133 H  -52.9607 6.5280 -21.6029 0
M  V30 4134 H  -55.2490 5.1225 -21.6116 0
M  V30 4135 H  -54.6110 5.6747 -20.0646 0
M  V30 4136 H  -54.7668 3.3815 -19.5940 0
M  V30 4137 H  -54.3715 2.9002 -21.2536 0
M  V30 4138 H  -49.7489 5.9035 -20.5814 0
M  V30 4139 H  -48.5309 7.2073 -19.2698 0
M  V30 4140 H  -49.6182 9.0758 -18.0647 0
M  V30 4141 H  -51.1724 8.3016 -18.1934 0
M  V30 4142 H  -51.0467 8.4850 -20.7005 0
M  V30 4143 H  -49.5001 9.2841 -20.5539 0
M  V30 4144 H  -50.5320 11.1524 -19.3308 0
M  V30 4145 H  -52.0606 10.3117 -19.2407 0
M  V30 4146 H  -52.2380 10.3855 -21.7645 0
M  V30 4147 H  -50.7251 11.2724 -21.8318 0
M  V30 4148 H  -51.7555 13.0050 -20.5399 0
M  V30 4149 H  -52.6049 12.7141 -21.9228 0
M  V30 4150 H  -53.1716 12.1632 -20.4755 0
M  V30 4151 H  -48.6537 4.6776 -18.3784 0
M  V30 4152 H  -49.5870 4.3211 -15.7726 0
M  V30 4153 H  -47.3155 2.6880 -16.9932 0
M  V30 4154 H  -48.8865 2.6667 -17.7109 0
M  V30 4155 H  -49.2359 2.7211 -13.9930 0
M  V30 4156 H  -49.9101 0.4214 -13.1629 0
M  V30 4157 H  -48.4482 0.0762 -18.3063 0
M  V30 4158 H  -50.1520 -2.2623 -14.2465 0
M  V30 4159 H  -48.9609 -2.3480 -18.3819 0
M  V30 4160 H  -49.8067 -3.5193 -16.3674 0
M  V30 4161 H  -46.4961 5.6088 -16.9471 0
M  V30 4162 H  -44.9096 5.2507 -14.6373 0
M  V30 4163 H  -43.4955 6.9384 -15.5526 0
M  V30 4164 H  -44.8958 8.5215 -16.1932 0
M  V30 4165 H  -42.9992 6.1156 -17.8091 0
M  V30 4166 H  -43.3822 4.7747 -16.7387 0
M  V30 4167 H  -44.5728 5.3357 -17.9110 0
M  V30 4168 H  -47.3176 7.7905 -15.4537 0
M  V30 4169 H  -46.6812 9.5261 -13.2384 0
M  V30 4170 H  -48.8145 10.6367 -13.8730 0
M  V30 4171 H  -47.8138 10.3497 -15.2895 0
M  V30 4172 H  -49.2007 9.3135 -14.9699 0
M  V30 4173 H  -49.0459 6.8846 -13.8004 0
M  V30 4174 H  -50.4031 7.0586 -11.3093 0
M  V30 4175 H  -50.0171 4.7582 -13.2704 0
M  V30 4176 H  -52.0182 3.6626 -12.2153 0
M  V30 4177 H  -50.6059 3.6332 -11.1888 0
M  V30 4178 H  -51.8971 4.7926 -10.8714 0
M  V30 4179 H  -52.3208 5.2652 -14.0004 0
M  V30 4180 H  -52.3902 6.6209 -12.8771 0
M  V30 4181 H  -51.2650 6.6437 -14.2321 0
M  V30 4182 H  -47.5585 5.0932 -12.3680 0
M  V30 4183 H  -47.3002 3.6969 -9.9012 0
M  V30 4184 H  -44.9637 3.1696 -10.8922 0
M  V30 4185 H  -45.4741 4.0707 -12.2935 0
M  V30 4186 H  -47.5057 2.5251 -12.4801 0
M  V30 4187 H  -46.9263 1.6507 -11.0887 0
M  V30 4188 H  -45.8067 6.7941 -10.9763 0
M  V30 4189 H  -44.0356 6.9858 -8.7452 0
M  V30 4190 H  -45.2507 9.0513 -10.5907 0
M  V30 4191 H  -43.4474 7.3973 -11.3308 0
M  V30 4192 H  -42.3598 8.1732 -10.2340 0
M  V30 4193 H  -43.6327 10.7602 -9.6700 0
M  V30 4194 H  -44.8796 10.3605 -8.5207 0
M  V30 4195 H  -43.2655 9.6712 -8.3414 0
M  V30 4196 H  -42.7641 8.8831 -12.8914 0
M  V30 4197 H  -43.7308 10.1003 -12.0750 0
M  V30 4198 H  -42.0178 9.9358 -11.6895 0
M  V30 4199 H  -47.4834 7.9222 -9.1553 0
M  V30 4200 H  -47.7608 9.1765 -6.6171 0
M  V30 4201 H  -49.7460 7.8962 -8.5197 0
M  V30 4202 H  -51.5960 8.9895 -7.2058 0
M  V30 4203 H  -50.8869 7.6260 -6.3748 0
M  V30 4204 H  -50.4604 9.2686 -5.8907 0
M  V30 4205 H  -50.4224 10.2050 -8.9805 0
M  V30 4206 H  -49.3000 10.8133 -7.7674 0
M  V30 4207 H  -48.6914 10.0498 -9.2268 0
M  V30 4208 H  -48.2917 5.7289 -7.6345 0
M  V30 4209 H  -49.1245 4.8775 -5.0386 0
M  V30 4210 H  -48.6693 2.5676 -5.9432 0
M  V30 4211 H  -47.9799 3.2770 -7.3777 0
M  V30 4212 H  -50.1436 4.2422 -7.9910 0
M  V30 4213 H  -50.6958 2.3226 -9.0077 0
M  V30 4214 H  -49.5411 1.4833 -7.9908 0
M  V30 4215 H  -51.2243 1.5652 -7.5123 0
M  V30 4216 H  -52.1931 3.3129 -6.4735 0
M  V30 4217 H  -50.9926 3.5426 -5.2165 0
M  V30 4218 H  -51.4581 4.8873 -6.2545 0
M  V30 4219 H  -45.8809 4.9797 -6.5560 0
M  V30 4220 H  -44.4598 3.5325 -4.6223 0
M  V30 4221 H  -43.7172 5.7430 -6.5372 0
M  V30 4222 H  -44.1710 3.2625 -7.1904 0
M  V30 4223 H  -42.6620 2.9030 -6.4437 0
M  V30 4224 H  -41.2634 5.3747 -6.0696 0
M  V30 4225 H  -42.0718 6.1907 -4.7593 0
M  V30 4226 H  -41.7045 4.4857 -4.6237 0
M  V30 4227 H  -43.0970 3.8630 -9.1035 0
M  V30 4228 H  -42.2272 5.1452 -8.2729 0
M  V30 4229 H  -41.5653 3.5176 -8.3302 0
M  V30 4230 H  -44.9667 7.1084 -4.7772 0
M  V30 4231 H  -43.6668 7.6422 -2.3083 0
M  V30 4232 H  -44.8256 9.9052 -2.6100 0
M  V30 4233 H  -45.5277 9.2728 -4.0714 0
M  V30 4234 H  -43.2092 8.0234 -5.6146 0
M  V30 4235 H  -41.1821 9.3244 -6.3919 0
M  V30 4236 H  -43.4242 11.8871 -2.2498 0
M  V30 4237 H  -39.7864 11.7310 -5.6442 0
M  V30 4238 H  -41.7048 13.6669 -2.2980 0
M  V30 4239 H  -39.8847 13.6132 -3.9825 0
M  V30 4240 H  -47.1147 6.9560 -3.0020 0
M  V30 4241 H  -48.0478 7.7333 -0.4064 0
M  V30 4242 H  -49.1990 6.0510 -2.6408 0
M  V30 4243 H  -51.4074 6.0026 -1.4194 0
M  V30 4244 H  -50.2172 4.9382 -0.7126 0
M  V30 4245 H  -50.5756 6.4888 0.0527 0
M  V30 4246 H  -50.7847 7.8991 -2.8639 0
M  V30 4247 H  -50.1498 8.6786 -1.4174 0
M  V30 4248 H  -49.1578 8.5606 -2.8599 0
M  V30 4249 H  -47.1184 4.5029 -1.7901 0
M  V30 4250 H  -47.6322 3.0476 0.5933 0
M  V30 4251 H  -45.8422 2.4784 -1.7903 0
M  V30 4252 H  -45.7085 0.0839 -1.0047 0
M  V30 4253 H  -44.7834 1.1636 0.0099 0
M  V30 4254 H  -46.3537 0.5796 0.5557 0
M  V30 4255 H  -47.5873 0.8608 -2.4008 0
M  V30 4256 H  -48.4748 1.1994 -0.9175 0
M  V30 4257 H  -48.3322 2.4317 -2.1589 0
M  V30 4258 H  -44.6132 4.5762 -0.6542 0
M  V30 4259 H  -42.8084 3.8941 1.3362 0
M  V30 4260 H  -41.7698 6.1268 0.6522 0
M  V30 4261 H  -43.1568 6.4256 -0.3619 0
M  V30 4262 H  -41.4876 5.3956 -1.4920 0
M  V30 4263 H  -45.0513 6.7076 1.3012 0
M  V30 4264 H  -44.3909 7.7541 3.8391 0
M  V30 4265 H  -46.7094 7.9876 1.9391 0
M  V30 4266 H  -47.8309 9.6999 3.4105 0
M  V30 4267 H  -48.0540 8.0454 3.9318 0
M  V30 4268 H  -46.9025 9.0796 4.7694 0
M  V30 4269 H  -46.0533 10.3384 1.8682 0
M  V30 4270 H  -44.8811 10.0893 3.1595 0
M  V30 4271 H  -44.6460 9.3233 1.5934 0
M  V30 4272 H  -46.9551 5.3678 2.9082 0
M  V30 4273 H  -48.0244 4.9953 5.4688 0
M  V30 4274 H  -47.9701 3.2824 2.9736 0
M  V30 4275 H  -49.7415 1.8001 3.9528 0
M  V30 4276 H  -48.1656 1.5262 4.6540 0
M  V30 4277 H  -49.3772 2.4520 5.5457 0
M  V30 4278 H  -50.3258 3.8796 2.8008 0
M  V30 4279 H  -50.2753 4.6959 4.3604 0
M  V30 4280 H  -49.3831 5.3474 2.9981 0
M  V30 4281 H  -45.2607 3.2428 3.9391 0
M  V30 4282 H  -44.8827 1.3752 6.0704 0
M  V30 4283 H  -42.6146 1.1014 5.0670 0
M  V30 4284 H  -42.8408 2.4976 4.0733 0
M  V30 4285 H  -44.3198 1.4220 2.6345 0
M  V30 4286 H  -42.8803 0.0821 1.6234 0
M  V30 4287 H  -41.8047 0.4314 2.9660 0
M  V30 4288 H  -42.7727 -1.0288 2.9912 0
M  V30 4289 H  -45.0396 -1.1216 3.2433 0
M  V30 4290 H  -45.1108 -0.4179 4.8464 0
M  V30 4291 H  -46.0471 0.2782 3.5363 0
M  V30 4292 H  -44.0607 4.7407 5.8274 0
M  V30 4293 H  -42.0424 4.6127 7.9724 0
M  V30 4294 H  -41.5316 6.8260 7.2810 0
M  V30 4295 H  -41.7486 5.9051 5.8032 0
M  V30 4296 H  -43.0127 7.0064 6.3384 0
M  V30 4297 H  -45.4841 5.2783 7.6237 0
M  V30 4298 H  -45.8292 7.1648 9.6572 0
M  V30 4299 H  -47.6760 5.1480 8.4086 0
M  V30 4300 H  -49.6403 6.0967 9.6300 0
M  V30 4301 H  -48.6187 5.1392 10.6698 0
M  V30 4302 H  -48.5443 6.9055 10.7419 0
M  V30 4303 H  -48.8869 7.1821 7.6639 0
M  V30 4304 H  -47.7050 8.1904 8.4948 0
M  V30 4305 H  -47.2269 7.1827 7.1373 0
M  V30 4306 H  -46.0999 3.4688 12.8600 0
M  V30 4307 H  -45.0585 1.3089 12.6033 0
M  V30 4308 H  -43.8649 1.9669 11.4755 0
M  V30 4309 H  -46.8123 1.5734 10.9485 0
M  V30 4310 H  -45.4703 0.9446 9.9847 0
M  V30 4311 H  -44.8817 3.1493 9.2421 0
M  V30 4312 H  -46.6488 3.2690 9.2915 0
M  V30 4313 H  -43.0320 4.5939 11.2579 0
M  V30 4314 H  -41.5882 4.9445 13.7202 0
M  V30 4315 H  -40.0824 6.3427 12.4569 0
M  V30 4316 H  -41.1998 6.5718 11.1649 0
M  V30 4317 H  -39.5474 5.0629 10.4306 0
M  V30 4318 H  -41.0090 4.1325 10.5635 0
M  V30 4319 H  -43.4206 7.2445 11.6242 0
M  V30 4320 H  -43.1465 9.5173 13.0935 0
M  V30 4321 H  -44.6175 10.4077 11.5405 0
M  V30 4322 H  -44.4820 8.8280 10.7764 0
M  V30 4323 H  -45.8448 9.1746 11.7967 0
M  V30 4324 H  -45.8523 7.1861 13.4790 0
M  V30 4325 H  -47.1799 8.6270 15.5315 0
M  V30 4326 H  -47.2788 5.7849 14.5001 0
M  V30 4327 H  -48.2666 7.6920 13.1992 0
M  V30 4328 H  -49.3359 8.0309 14.5291 0
M  V30 4329 H  -49.2718 5.2655 15.9165 0
M  V30 4330 H  -47.8337 5.4107 16.8739 0
M  V30 4331 H  -48.9964 6.7373 16.8405 0
M  V30 4332 H  -50.2615 6.6224 12.5429 0
M  V30 4333 H  -49.3424 5.2770 13.2108 0
M  V30 4334 H  -50.6221 6.0395 14.1583 0
M  V30 4335 H  -44.6750 6.0739 15.6775 0
M  V30 4336 H  -43.8974 4.8706 17.4637 0
M  V30 4337 H  -45.0583 5.6569 18.5056 0
M  V30 4338 H  -42.8439 7.6806 16.5885 0
M  V30 4339 H  -40.7589 7.8092 18.5589 0
M  V30 4340 H  -40.3792 9.9962 16.9280 0
M  V30 4341 H  -41.3118 8.9987 15.8716 0
M  V30 4342 H  -38.2645 9.2149 17.9856 0
M  V30 4343 H  -40.1836 6.9550 14.8570 0
M  V30 4344 H  -36.1462 8.0915 17.4493 0
M  V30 4345 H  -38.0647 5.8363 14.3928 0
M  V30 4346 H  -36.0494 6.3921 15.6692 0
M  V30 4347 H  -40.9435 8.7131 20.4836 0
M  V30 4348 H  -41.7675 11.5300 20.6393 0
M  V30 4349 H  -42.6293 10.8980 23.0858 0
M  V30 4350 H  -42.7698 9.2870 22.4320 0
M  V30 4351 H  -40.7340 12.6855 22.2893 0
M  V30 4352 H  -37.9824 11.8253 22.6349 0
M  V30 4353 H  -37.5296 14.0099 23.3188 0
M  V30 4354 H  -40.3842 14.2708 24.2131 0
M  V30 4355 H  -39.6864 15.6783 23.4993 0
M  V30 4356 H  -38.3322 15.4197 21.5304 0
M  V30 4357 H  -38.0945 13.8025 20.9087 0
M  V30 4358 H  -39.7186 14.3789 21.2423 0
M  V30 4359 H  -39.2466 15.9128 25.8253 0
M  V30 4360 H  -38.6344 14.2768 25.9882 0
M  V30 4361 H  -37.6979 15.4841 25.1144 0
M  V30 4362 H  -36.8727 11.6057 24.6478 0
M  V30 4363 H  -38.5186 11.2957 27.1129 0
M  V30 4364 H  -36.3575 9.3678 26.1362 0
M  V30 4365 H  -38.6053 8.9836 25.1170 0
M  V30 4366 H  -39.2968 8.8401 26.7096 0
M  V30 4367 H  -36.7462 8.0858 28.2633 0
M  V30 4368 H  -36.0691 9.6505 28.5822 0
M  V30 4369 H  -37.7907 9.3786 28.8380 0
M  V30 4370 H  -38.6282 6.6695 25.3348 0
M  V30 4371 H  -37.0038 6.9958 25.9194 0
M  V30 4372 H  -38.3155 6.7031 27.0618 0
M  V30 4373 H  -37.6004 12.2527 28.8651 0
M  V30 4374 H  -35.0595 13.7055 28.4837 0
M  V30 4375 H  -37.1068 13.8493 30.7386 0
M  V30 4376 H  -37.8619 14.6189 28.7708 0
M  V30 4377 H  -35.9485 16.0163 31.3049 0
M  V30 4378 H  -34.8939 14.6447 31.5799 0
M  V30 4379 H  -34.6801 15.6390 30.1427 0
M  V30 4380 H  -33.1836 13.0162 29.3428 0
M  V30 4381 H  -33.1689 11.0609 31.5997 0
M  V30 4382 H  -31.5588 11.4092 33.1534 0
M  V30 4383 H  -30.0813 13.9996 33.0091 0
M  V30 4384 H  -30.0582 14.0212 35.4679 0
M  V30 4385 H  -31.0739 12.5939 35.5077 0
M  V30 4386 H  -28.2818 13.3380 32.0559 0
M  V30 4387 H  -26.9547 10.8693 32.4786 0
M  V30 4388 H  -24.5545 10.7897 32.9442 0
M  V30 4389 H  -24.0399 11.2361 35.6595 0
M  V30 4390 H  -23.2237 13.2557 32.8601 0
M  V30 4391 H  -21.9948 15.2544 32.7460 0
M  V30 4392 H  -21.7709 15.2813 34.4898 0
M  V30 4393 H  -23.2286 17.0387 32.2502 0
M  V30 4394 H  -25.4580 18.0159 33.8397 0
M  V30 4395 H  -25.8212 19.3543 31.6323 0
M  V30 4396 H  -24.3461 18.6128 31.0440 0
M  V30 4397 H  -23.2746 19.5331 32.8401 0
M  V30 4398 H  -27.6688 17.9630 33.2626 0
M  V30 4399 H  -28.6854 15.5248 32.2099 0
M  V30 4400 H  -30.0204 16.4500 33.8359 0
M  V30 4401 H  -30.9230 16.8889 32.4236 0
M  V30 4402 H  -30.3264 19.3840 31.4697 0
M  V30 4403 H  -29.5629 18.0060 35.4925 0
M  V30 4404 H  -30.1458 21.7248 32.2384 0
M  V30 4405 H  -29.4127 20.3541 36.2627 0
M  V30 4406 H  -29.7839 23.1308 34.0223 0
M  V30 4407 H  -29.8189 15.0584 30.3179 0
M  V30 4408 H  -29.7660 16.9456 28.0509 0
M  V30 4409 H  -31.8330 16.7709 27.2757 0
M  V30 4410 H  -33.2496 14.2094 27.4309 0
M  V30 4411 H  -33.9220 12.9965 25.6465 0
M  V30 4412 H  -32.3919 13.3110 23.1193 0
M  V30 4413 H  -31.9071 10.8544 23.1962 0
M  V30 4414 H  -32.9779 10.9510 26.0528 0
M  V30 4415 H  -31.8179 9.7796 25.5384 0
M  V30 4416 H  -29.9575 10.9807 24.6166 0
M  V30 4417 H  -30.1912 12.5329 23.8274 0
M  V30 4418 H  -30.6269 12.3299 25.5216 0
M  V30 4419 H  -33.8352 8.6179 25.3233 0
M  V30 4420 H  -34.6928 9.9723 24.6190 0
M  V30 4421 H  -33.4966 9.0963 23.6624 0
M  V30 4422 H  -33.2122 11.3404 21.6269 0
M  V30 4423 H  -36.0537 10.8169 22.0359 0
M  V30 4424 H  -35.0666 12.1622 19.4841 0
M  V30 4425 H  -35.9848 12.9831 20.7182 0
M  V30 4426 H  -36.6595 8.9360 21.3733 0
M  V30 4427 H  -35.3822 7.3735 19.3465 0
M  V30 4428 H  -33.8102 6.8699 21.0356 0
M  V30 4429 H  -34.7780 5.4584 20.7955 0
M  V30 4430 H  -35.1947 7.4134 23.1047 0
M  V30 4431 H  -36.1912 5.0877 24.0854 0
M  V30 4432 H  -37.1795 6.2386 23.2092 0
M  V30 4433 H  -36.5225 4.8252 22.3854 0
M  V30 4434 H  -33.5915 6.4248 24.3572 0
M  V30 4435 H  -33.9419 4.8083 23.7715 0
M  V30 4436 H  -32.9142 5.8734 22.8383 0
M  V30 4437 H  -36.6113 5.1877 19.2004 0
M  V30 4438 H  -39.4290 5.7688 19.1624 0
M  V30 4439 H  -37.8297 3.2332 18.5938 0
M  V30 4440 H  -38.2383 4.4546 17.4240 0
M  V30 4441 H  -40.2243 2.6710 18.8748 0
M  V30 4442 H  -41.5924 3.8074 16.6947 0
M  V30 4443 H  -41.7694 4.2179 18.3875 0
M  V30 4444 H  -40.6951 5.1588 17.3523 0
M  V30 4445 H  -40.1234 1.1903 17.1777 0
M  V30 4446 H  -40.0325 2.4222 15.9249 0
M  V30 4447 H  -38.5865 1.9340 16.7863 0
M  V30 4448 H  -40.7500 5.6432 20.8609 0
M  V30 4449 H  -40.0824 5.0315 23.4211 0
M  V30 4450 H  -42.8511 4.7305 23.3895 0
M  V30 4451 H  -42.5818 5.5920 21.9168 0
M  V30 4452 H  -40.0244 7.5577 23.3379 0
M  V30 4453 H  -43.2580 8.7971 25.7251 0
M  V30 4454 H  -40.2640 0.4668 23.5184 0
M  V30 4455 H  -39.0452 -0.1285 25.4674 0
M  V30 4456 H  -39.8944 1.0353 26.4726 0
M  V30 4457 H  -37.6904 1.5787 24.4984 0
M  V30 4458 H  -37.8120 2.1738 26.1542 0
M  V30 4459 H  -39.5928 3.7179 25.5122 0
M  V30 4460 H  -38.5080 3.7419 24.1105 0
M  V30 4461 H  -41.8787 2.5284 26.0096 0
M  V30 4462 H  -44.0837 0.6629 26.4377 0
M  V30 4463 H  -43.6226 3.5407 27.3657 0
M  V30 4464 H  -45.4211 3.0801 29.0635 0
M  V30 4465 H  -46.0490 3.1309 27.4330 0
M  V30 4466 H  -45.8001 1.5782 28.2281 0
M  V30 4467 H  -43.1080 2.5336 29.5787 0
M  V30 4468 H  -43.2342 0.9228 28.8786 0
M  V30 4469 H  -41.9593 2.0208 28.3580 0
M  V30 4470 H  -45.7060 0.5069 24.9882 0
M  V30 4471 H  -46.5444 2.9068 23.4707 0
M  V30 4472 H  -47.0492 0.7229 21.7601 0
M  V30 4473 H  -45.5492 0.2611 22.4830 0
M  V30 4474 H  -45.0830 1.5185 20.4493 0
M  V30 4475 H  -44.5434 2.4614 21.8106 0
M  V30 4476 H  -46.1772 5.1856 20.2242 0
M  V30 4477 H  -44.6548 4.4235 20.5979 0
M  V30 4478 H  -48.5905 3.1764 22.9145 0
M  V30 4479 H  -50.4809 2.2412 24.8678 0
M  V30 4480 H  -50.0895 1.7647 21.3189 0
M  V30 4481 H  -52.5446 0.0763 21.2502 0
M  V30 4482 H  -50.8549 1.1053 18.9137 0
M  V30 4483 H  -51.7411 2.8135 20.1082 0
M  V30 4484 H  -52.9202 0.7351 17.5772 0
M  V30 4485 H  -52.4412 -0.7842 18.3028 0
M  V30 4486 H  -53.7668 0.1316 18.9975 0
M  V30 4487 H  -52.4682 -2.0747 20.6737 0
M  V30 4488 H  -50.1308 -3.6096 21.0443 0
M  V30 4489 H  -51.5912 -5.4936 20.2929 0
M  V30 4490 H  -52.4159 -4.4600 21.4499 0
M  V30 4491 H  -52.8004 -4.3398 19.7351 0
M  V30 4492 H  -51.4397 -2.1339 18.1366 0
M  V30 4493 H  -50.0284 -3.5547 16.1457 0
M  V30 4494 H  -51.0834 -0.6948 16.2982 0
M  V30 4495 H  -51.9573 -2.0766 15.6994 0
M  V30 4496 H  -49.7554 -3.3104 13.9102 0
M  V30 4497 H  -51.3033 0.6987 14.3704 0
M  V30 4498 H  -49.2212 -2.8144 11.5728 0
M  V30 4499 H  -50.7625 1.1477 12.0143 0
M  V30 4500 H  -49.7172 -0.5963 10.6221 0
M  V30 4501 H  -49.1728 -0.6628 18.0837 0
M  V30 4502 H  -46.5878 -0.3421 16.8351 0
M  V30 4503 H  -46.3230 1.4264 18.6080 0
M  V30 4504 H  -47.8263 0.9271 19.3186 0
M  V30 4505 H  -47.9776 2.9866 17.8901 0
M  V30 4506 H  -49.1021 1.7354 17.4406 0
M  V30 4507 H  -45.2045 2.1266 15.0024 0
M  V30 4508 H  -45.4596 3.2659 16.3461 0
M  V30 4509 H  -45.2723 1.5307 16.6359 0
M  V30 4510 H  -47.7617 -2.0254 19.7310 0
M  V30 4511 H  -45.2182 -2.4164 20.9596 0
M  V30 4512 H  -47.0769 -4.3220 18.5294 0
M  V30 4513 H  -45.1572 -6.4089 18.2755 0
M  V30 4514 H  -45.6314 -3.3280 16.4854 0
M  V30 4515 H  -43.5946 -3.6953 14.5902 0
M  V30 4516 H  -44.6326 -1.0642 15.7519 0
M  V30 4517 H  -45.4283 -1.9766 14.5008 0
M  V30 4518 H  -42.5853 0.2682 15.2280 0
M  V30 4519 H  -44.4702 -2.2317 12.2520 0
M  V30 4520 H  -41.1964 1.3216 13.4613 0
M  V30 4521 H  -43.1216 -1.1505 10.4912 0
M  V30 4522 H  -40.6696 1.3699 11.1836 0
M  V30 4523 H  -43.3960 -2.4057 17.9279 0
M  V30 4524 H  -40.9167 -1.1769 17.7959 0
M  V30 4525 H  -40.9547 -1.3893 20.2982 0
M  V30 4526 H  -42.4898 -0.8409 19.6478 0
M  V30 4527 H  -42.3067 -2.5114 20.1738 0
M  V30 4528 H  -41.5806 -4.5987 18.7484 0
M  V30 4529 H  -38.7689 -5.2127 19.1601 0
M  V30 4530 H  -41.2851 -6.9430 19.0037 0
M  V30 4531 H  -41.1139 -5.6368 20.7974 0
M  V30 4532 H  -39.9218 -8.7782 20.0595 0
M  V30 4533 H  -39.4308 -8.4857 18.4056 0
M  V30 4534 H  -38.4528 -7.8639 19.7348 0
M  V30 4535 H  -41.2240 -5.9274 16.6109 0
M  V30 4536 H  -39.3432 -7.4581 15.0183 0
M  V30 4537 H  -41.3030 -7.8953 13.6210 0
M  V30 4538 H  -41.7705 -8.0579 15.3060 0
M  V30 4539 H  -42.2141 -6.6092 14.4076 0
M  V30 4540 H  -39.1586 -4.2552 15.3976 0
M  V30 4541 H  -39.5461 -3.1670 12.8247 0
M  V30 4542 H  -37.6312 -2.1902 14.9669 0
M  V30 4543 H  -39.3207 -1.8130 14.9508 0
M  V30 4544 H  -39.1863 -0.6482 12.8124 0
M  V30 4545 H  -37.5115 -1.0556 12.6053 0
M  V30 4546 H  -38.5647 0.6664 14.8507 0
M  V30 4547 H  -37.8702 1.2622 13.3685 0
M  V30 4548 H  -35.6993 0.0509 13.9155 0
M  V30 4549 H  -36.3787 -0.4019 15.4699 0
M  V30 4550 H  -35.9748 2.3321 14.5016 0
M  V30 4551 H  -36.6553 1.9286 15.9497 0
M  V30 4552 H  -35.0779 1.5494 15.6445 0
M  V30 4553 H  -36.5680 -4.5123 14.3735 0
M  V30 4554 H  -34.7840 -3.8347 12.2961 0
M  V30 4555 H  -33.2164 -5.4442 13.2944 0
M  V30 4556 H  -34.5133 -6.1828 14.2140 0
M  V30 4557 H  -36.9123 -6.6349 12.6894 0
M  V30 4558 H  -35.9907 -7.9830 10.2952 0
M  V30 4559 H  -38.0050 -9.3928 10.6160 0
M  V30 4560 H  -38.5395 -8.3662 11.9194 0
M  V30 4561 H  -37.8059 -9.0650 14.2329 0
M  V30 4562 H  -36.0879 -10.6569 15.2494 0
M  V30 4563 H  -35.3166 -10.3981 9.9568 0
M  V30 4564 H  -33.8596 -12.2870 14.3293 0
M  V30 4565 H  -33.3792 -11.9376 10.0618 0
M  V30 4566 H  -32.6426 -12.8855 12.2385 0
M  V30 4567 H  -38.7701 -5.7494 11.0777 0
M  V30 4568 H  -39.9510 -5.8622 8.5108 0
M  V30 4569 H  -39.9993 -3.8380 10.7532 0
M  V30 4570 H  -41.2447 -4.9557 10.2785 0
M  V30 4571 H  -40.2115 -1.4810 9.9824 0
M  V30 4572 H  -41.4610 -0.1870 8.1634 0
M  V30 4573 H  -42.3425 -5.4392 7.5539 0
M  V30 4574 H  -43.1262 -0.8229 5.8756 0
M  V30 4575 H  -43.7206 -5.0739 5.5277 0
M  V30 4576 H  -44.1147 -2.7778 4.6746 0
M  V30 4577 H  -37.4567 -3.6317 9.7521 0
M  V30 4578 H  -37.0619 -2.0615 7.4461 0
M  V30 4579 H  -34.6145 -2.1044 8.6968 0
M  V30 4580 H  -35.5670 -2.7509 9.9674 0
M  V30 4581 H  -35.7884 -0.0547 8.5863 0
M  V30 4582 H  -37.7015 0.3329 10.4540 0
M  V30 4583 H  -38.0552 -0.1870 8.8220 0
M  V30 4584 H  -37.9894 -1.3605 10.1298 0
M  V30 4585 H  -35.7253 0.2487 11.4369 0
M  V30 4586 H  -34.5444 -0.9828 11.0536 0
M  V30 4587 H  -34.4387 0.5818 10.2922 0
M  V30 4588 H  -35.5440 -5.1892 8.4351 0
M  V30 4589 H  -33.9095 -5.3118 6.0501 0
M  V30 4590 H  -34.4351 -7.2083 8.3453 0
M  V30 4591 H  -33.0265 -6.2204 8.0793 0
M  V30 4592 H  -32.0715 -6.6810 5.4289 0
M  V30 4593 H  -33.9592 -9.4968 8.0961 0
M  V30 4594 H  -30.8235 -8.5277 4.3858 0
M  V30 4595 H  -32.7355 -11.3244 6.9920 0
M  V30 4596 H  -31.1642 -10.8407 5.1575 0
M  V30 4597 H  -36.6653 -7.3485 7.1146 0
M  V30 4598 H  -36.7710 -8.8698 4.7668 0
M  V30 4599 H  -37.6231 -9.5231 7.0734 0
M  V30 4600 H  -38.6376 -9.9460 5.7183 0
M  V30 4601 H  -39.0146 -7.8098 7.5118 0
M  V30 4602 H  -38.3254 -5.7326 5.5099 0
M  V30 4603 H  -39.6816 -5.8301 2.8896 0
M  V30 4604 H  -39.6037 -3.4096 4.7130 0
M  V30 4605 H  -40.7904 -4.6741 4.8384 0
M  V30 4606 H  -39.4549 -2.0349 2.5208 0
M  V30 4607 H  -42.5141 -5.0186 3.1418 0
M  V30 4608 H  -40.6063 -1.3012 0.4889 0
M  V30 4609 H  -43.6896 -4.1889 1.1476 0
M  V30 4610 H  -42.7263 -2.3568 -0.1914 0
M  V30 4611 H  -37.7913 -3.0587 4.0934 0
M  V30 4612 H  -37.1857 -2.1841 1.6768 0
M  V30 4613 H  -35.4108 -0.7512 2.7108 0
M  V30 4614 H  -35.4728 -1.6726 4.1562 0
M  V30 4615 H  -37.9468 -1.7977 5.3311 0
M  V30 4616 H  -36.6757 1.1502 2.4437 0
M  V30 4617 H  -39.6960 -0.2446 6.1395 0
M  V30 4618 H  -38.3825 2.6987 3.2803 0
M  V30 4619 H  -40.0672 3.0688 4.7791 0
M  V30 4620 H  -35.0611 -4.5967 3.2475 0
M  V30 4621 H  -33.1313 -4.3049 1.0250 0
M  V30 4622 H  -32.9697 -6.3151 3.3026 0
M  V30 4623 H  -32.4668 -4.6695 3.4806 0
M  V30 4624 H  -30.7642 -3.7052 1.7713 0
M  V30 4625 H  -31.5484 -7.9267 2.1788 0
M  V30 4626 H  -28.7049 -4.2254 0.5239 0
M  V30 4627 H  -29.4661 -8.4094 0.9552 0
M  V30 4628 H  -28.0773 -6.5706 0.1000 0
M  V30 4629 H  -35.1889 -6.9338 2.4967 0
M  V30 4630 H  -34.3931 -8.7333 0.4524 0
M  V30 4631 H  -35.9536 -10.3597 1.4666 0
M  V30 4632 H  -36.6128 -9.1091 2.4905 0
M  V30 4633 H  -34.4742 -8.5150 3.7562 0
M  V30 4634 H  -37.6789 -7.2316 1.0043 0
M  V30 4635 H  -38.8380 -8.5789 -1.1795 0
M  V30 4636 H  -40.3385 -6.1926 -0.7666 0
M  V30 4637 H  -39.6852 -6.5805 0.7882 0
M  V30 4638 H  -41.2546 -8.4562 -0.9979 0
M  V30 4639 H  -40.7308 -10.1988 0.3265 0
M  V30 4640 H  -39.5695 -9.2022 1.1751 0
M  V30 4641 H  -41.1996 -9.3523 1.7893 0
M  V30 4642 H  -43.2026 -7.7628 -0.0874 0
M  V30 4643 H  -42.5592 -7.6300 1.5428 0
M  V30 4644 H  -42.3240 -6.3278 0.3988 0
M  V30 4645 H  -38.1030 -4.7332 -3.8866 0
M  V30 4646 H  -36.9178 -2.7160 -3.5050 0
M  V30 4647 H  -35.7038 -3.4990 -2.4907 0
M  V30 4648 H  -38.5963 -2.9409 -1.7841 0
M  V30 4649 H  -37.1755 -2.5415 -0.8167 0
M  V30 4650 H  -36.7423 -4.8911 -0.3766 0
M  V30 4651 H  -38.5193 -4.7599 -0.2583 0
M  V30 4652 H  -35.0539 -6.1209 -2.4104 0
M  V30 4653 H  -33.7178 -6.2528 -4.9526 0
M  V30 4654 H  -32.2717 -7.9836 -3.6111 0
M  V30 4655 H  -33.1497 -7.4658 -2.2277 0
M  V30 4656 H  -31.4839 -5.7655 -4.1530 0
M  V30 4657 H  -32.2707 -3.8459 -3.3199 0
M  V30 4658 H  -33.4395 -4.6917 -2.3379 0
M  V30 4659 H  -31.8892 -4.3363 -1.6698 0
M  V30 4660 H  -30.1118 -5.6002 -1.7918 0
M  V30 4661 H  -30.7892 -7.2149 -1.6458 0
M  V30 4662 H  -29.8016 -6.7946 -3.0329 0
M  V30 4663 H  -35.7135 -8.6195 -3.1235 0
M  V30 4664 H  -35.2612 -10.8395 -4.8257 0
M  V30 4665 H  -37.3394 -11.7369 -3.7467 0
M  V30 4666 H  -36.2149 -11.0846 -2.5673 0
M  V30 4667 H  -37.6450 -10.1600 -3.0251 0
M  V30 4668 H  -37.8163 -8.2889 -4.8731 0
M  V30 4669 H  -39.1858 -9.3129 -7.1543 0
M  V30 4670 H  -39.1675 -6.6298 -5.7555 0
M  V30 4671 H  -40.2767 -8.7043 -4.7302 0
M  V30 4672 H  -41.3975 -8.6816 -6.0547 0
M  V30 4673 H  -41.1470 -5.9051 -7.1045 0
M  V30 4674 H  -39.7113 -5.9896 -8.0818 0
M  V30 4675 H  -40.9126 -7.2774 -8.1756 0
M  V30 4676 H  -41.9699 -7.4860 -3.7274 0
M  V30 4677 H  -41.0908 -6.1341 -4.4252 0
M  V30 4678 H  -42.5202 -6.7711 -5.2378 0
M  V30 4679 H  -36.7465 -6.6296 -6.8363 0
M  V30 4680 H  -36.8593 -5.9865 -9.5824 0
M  V30 4681 H  -34.4971 -5.3594 -7.7477 0
M  V30 4682 H  -36.3251 -4.6400 -6.7440 0
M  V30 4683 H  -34.3273 -3.2922 -9.1291 0
M  V30 4684 H  -34.2155 -4.6803 -10.2198 0
M  V30 4685 H  -35.7049 -3.7610 -10.0540 0
M  V30 4686 H  -34.6151 -8.1735 -7.8016 0
M  V30 4687 H  -32.9301 -8.7400 -10.0446 0
M  V30 4688 H  -32.0912 -10.5915 -8.6481 0
M  V30 4689 H  -32.2190 -9.1237 -7.6932 0
M  V30 4690 H  -33.4297 -10.3989 -7.5246 0
M  V30 4691 H  -36.0095 -10.1641 -8.8741 0
M  V30 4692 H  -35.9260 -12.4621 -10.5496 0
M  V30 4693 H  -38.1979 -11.0865 -9.0851 0
M  V30 4694 H  -37.2952 -12.4939 -8.5986 0
M  V30 4695 H  -37.3010 -14.4852 -10.5095 0
M  V30 4696 H  -40.3938 -11.5398 -9.8538 0
M  V30 4697 H  -38.9659 -15.9750 -11.5408 0
M  V30 4698 H  -42.0320 -13.0703 -10.8702 0
M  V30 4699 H  -41.3220 -15.2753 -11.7121 0
M  V30 4700 H  -37.6277 -9.2893 -11.0035 0
M  V30 4701 H  -38.4851 -9.9377 -13.6499 0
M  V30 4702 H  -38.8080 -7.3631 -13.7851 0
M  V30 4703 H  -38.3181 -7.3201 -12.1136 0
M  V30 4704 H  -40.6964 -9.0733 -14.4488 0
M  V30 4705 H  -39.9989 -7.6931 -10.4257 0
M  V30 4706 H  -42.9805 -9.7371 -13.8056 0
M  V30 4707 H  -42.2745 -8.3934 -9.8082 0
M  V30 4708 H  -43.7644 -9.3957 -11.4923 0
M  V30 4709 H  -35.4576 -8.4858 -12.4751 0
M  V30 4710 H  -34.4784 -7.7286 -15.0428 0
M  V30 4711 H  -33.1017 -8.3826 -12.4157 0
M  V30 4712 H  -33.4751 -6.8032 -13.0488 0
M  V30 4713 H  -32.3303 -6.1195 -15.3104 0
M  V30 4714 H  -31.0014 -9.4133 -12.8533 0
M  V30 4715 H  -30.1654 -6.1427 -16.4973 0
M  V30 4716 H  -28.8175 -9.4075 -14.0292 0
M  V30 4717 H  -28.0818 -7.0892 -16.6688 0
M  V30 4718 H  -34.2343 -10.8162 -13.1808 0
M  V30 4719 H  -32.5517 -12.1404 -15.0673 0
M  V30 4720 H  -34.4021 -13.2018 -12.8885 0
M  V30 4721 H  -32.6724 -12.0801 -12.1403 0
M  V30 4722 H  -33.0975 -15.3506 -13.0250 0
M  V30 4723 H  -34.1038 -15.1202 -14.4380 0
M  V30 4724 H  -32.3722 -14.8046 -14.5338 0
M  V30 4725 H  -36.1521 -12.0848 -14.6519 0
M  V30 4726 H  -36.7973 -13.8564 -16.7702 0
M  V30 4727 H  -39.0053 -12.4995 -16.7583 0
M  V30 4728 H  -38.2789 -11.4737 -15.5596 0
M  V30 4729 H  -38.0303 -13.5032 -14.0641 0
M  V30 4730 H  -40.8416 -13.6425 -14.0784 0
M  V30 4731 H  -39.8459 -12.4647 -13.2403 0
M  V30 4732 H  -40.5032 -12.0903 -14.8177 0
M  V30 4733 H  -39.9198 -15.3292 -15.1194 0
M  V30 4734 H  -38.8536 -14.9615 -16.4556 0
M  V30 4735 H  -38.1922 -15.5549 -14.9402 0
M  V30 4736 H  -36.2491 -10.3113 -16.7360 0
M  V30 4737 H  -36.9356 -9.8755 -19.4448 0
M  V30 4738 H  -35.1674 -8.1895 -17.6165 0
M  V30 4739 H  -36.9093 -8.1455 -17.6413 0
M  V30 4740 H  -37.0243 -7.2838 -19.8575 0
M  V30 4741 H  -35.3379 -7.5791 -20.1724 0
M  V30 4742 H  -36.4544 -4.0249 -20.4854 0
M  V30 4743 H  -34.7462 -4.3287 -20.6775 0
M  V30 4744 H  -35.9032 -5.5108 -21.2596 0
M  V30 4745 H  -33.6409 -10.2373 -17.9131 0
M  V30 4746 H  -32.2663 -9.9684 -20.3896 0
M  V30 4747 H  -30.2974 -10.9272 -19.1518 0
M  V30 4748 H  -31.9704 -10.9621 -16.8920 0
M  V30 4749 H  -30.0381 -9.0886 -17.5705 0
M  V30 4750 H  -30.7342 -8.4916 -19.0650 0
M  V30 4751 H  -31.7570 -8.6950 -17.6520 0
M  V30 4752 H  -33.5952 -12.8941 -18.7785 0
M  V30 4753 H  -32.3766 -14.7713 -20.5916 0
M  V30 4754 H  -34.3046 -16.2877 -19.8120 0
M  V30 4755 H  -34.8264 -14.9706 -18.7747 0
M  V30 4756 H  -32.6887 -14.7472 -17.4126 0
M  V30 4757 H  -35.3076 -12.7643 -20.7174 0
M  V30 4758 H  -36.3215 -13.8876 -23.1686 0
M  V30 4759 H  -37.0122 -11.5481 -21.4066 0
M  V30 4760 H  -37.9112 -12.9742 -21.7840 0
M  V30 4761 H  -38.3380 -12.1376 -24.0939 0
M  V30 4762 H  -37.3807 -10.7049 -23.7889 0
M  V30 4763 H  -34.2589 -11.0367 -22.3993 0
M  V30 4764 H  -34.0800 -9.9068 -24.9586 0
M  V30 4765 H  -31.7597 -9.1544 -24.2136 0
M  V30 4766 H  -31.9377 -10.1120 -22.7817 0
M  V30 4767 H  -33.8773 -8.6204 -22.0972 0
M  V30 4768 H  -33.6255 -7.6797 -23.5354 0
M  V30 4769 H  -32.2009 -5.2508 -20.9153 0
M  V30 4770 H  -33.3987 -5.5741 -22.1766 0
M  V30 4771 H  -33.4942 -6.3983 -20.6018 0
M  V30 4772 H  -32.0687 -12.4418 -23.4435 0
M  V30 4773 H  -30.2700 -12.9653 -25.4967 0
M  V30 4774 H  -31.4614 -14.5886 -23.2301 0
M  V30 4775 H  -29.9622 -13.7186 -23.2091 0
M  V30 4776 H  -30.5093 -16.2314 -24.8402 0
M  V30 4777 H  -28.4228 -16.1236 -25.7817 0
M  V30 4778 H  -28.5531 -14.4056 -25.4714 0
M  V30 4779 H  -27.6698 -15.4222 -24.3574 0
M  V30 4780 H  -29.7134 -17.5431 -23.1580 0
M  V30 4781 H  -28.6639 -16.2917 -22.4851 0
M  V30 4782 H  -30.3790 -16.2613 -22.1677 0
M  V30 4783 H  -33.4206 -14.5775 -24.8205 0
M  V30 4784 H  -33.4563 -16.3518 -27.0170 0
M  V30 4785 H  -35.4117 -15.2167 -25.0566 0
M  V30 4786 H  -34.9684 -16.8600 -25.3586 0
M  V30 4787 H  -36.2962 -16.4986 -27.6165 0
M  V30 4788 H  -36.9728 -15.0732 -26.8923 0
M  V30 4789 H  -38.6009 -16.6770 -26.2597 0
M  V30 4790 H  -37.5205 -16.8036 -24.8991 0
M  V30 4791 H  -36.3330 -18.6263 -25.8014 0
M  V30 4792 H  -37.7752 -21.2120 -27.5500 0
M  V30 4793 H  -36.3499 -20.6131 -26.7683 0
M  V30 4794 H  -39.5977 -19.8365 -27.8790 0
M  V30 4795 H  -39.6166 -18.2252 -27.2049 0
M  V30 4796 H  -34.6335 -12.9643 -26.7743 0
M  V30 4797 H  -35.6050 -12.9356 -29.4729 0
M  V30 4798 H  -35.6613 -10.4281 -29.0520 0
M  V30 4799 H  -35.1211 -10.7319 -27.4222 0
M  V30 4800 H  -37.1588 -12.1131 -27.0131 0
M  V30 4801 H  -37.5787 -12.0473 -28.7042 0
M  V30 4802 H  -37.7320 -9.4894 -28.4683 0
M  V30 4803 H  -37.6046 -9.7060 -26.7496 0
M  V30 4804 H  -39.7675 -11.0599 -28.4651 0
M  V30 4805 H  -39.9916 -9.4982 -27.7249 0
M  V30 4806 H  -39.6468 -10.4441 -25.6012 0
M  V30 4807 H  -40.8943 -11.1916 -26.3850 0
M  V30 4808 H  -39.4317 -11.9492 -26.2462 0
M  V30 4809 H  -32.4289 -12.1128 -28.0397 0
M  V30 4810 H  -31.3205 -10.9565 -30.3961 0
M  V30 4811 H  -29.1018 -11.5237 -29.2847 0
M  V30 4812 H  -29.9704 -12.3404 -28.0139 0
M  V30 4813 H  -29.4342 -9.2172 -26.3608 0
M  V30 4814 H  -28.8944 -10.8654 -26.5327 0
M  V30 4815 H  -31.6618 -14.3426 -29.2627 0
M  V30 4816 H  -30.0640 -15.5407 -31.3223 0
M  V30 4817 H  -32.2203 -16.6436 -29.5118 0
M  V30 4818 H  -29.8578 -15.9432 -28.6311 0
M  V30 4819 H  -29.2749 -17.2993 -29.5339 0
M  V30 4820 H  -31.4947 -18.9557 -30.1876 0
M  V30 4821 H  -32.2901 -18.1217 -31.4934 0
M  V30 4822 H  -30.5335 -18.2610 -31.4854 0
M  V30 4823 H  -29.9331 -17.5517 -26.9568 0
M  V30 4824 H  -31.5499 -17.8064 -27.5955 0
M  V30 4825 H  -30.2314 -18.8730 -28.0751 0
M  V30 4826 H  -33.5692 -14.7093 -31.0623 0
M  V30 4827 H  -34.2379 -15.7331 -33.6866 0
M  V30 4828 H  -36.3114 -14.3717 -33.3724 0
M  V30 4829 H  -35.6387 -13.6532 -31.9372 0
M  V30 4830 H  -35.0614 -17.2989 -32.4687 0
M  V30 4831 H  -37.7397 -14.3436 -30.8052 0
M  V30 4832 H  -36.2397 -19.0300 -31.2124 0
M  V30 4833 H  -38.9063 -16.1356 -29.5841 0
M  V30 4834 H  -38.1465 -18.4780 -29.8031 0
M  V30 4835 H  -32.9615 -12.6454 -32.4955 0
M  V30 4836 H  -33.4291 -11.1573 -34.8558 0
M  V30 4837 H  -31.1225 -10.5403 -32.9845 0
M  V30 4838 H  -32.7040 -10.4399 -32.3349 0
M  V30 4839 H  -31.8458 -8.9660 -34.8746 0
M  V30 4840 H  -31.6916 -8.2940 -33.2746 0
M  V30 4841 H  -30.4412 -12.8645 -33.6432 0
M  V30 4842 H  -28.8722 -12.2227 -35.9044 0
M  V30 4843 H  -27.8189 -12.7774 -33.8207 0
M  V30 4844 H  -27.2509 -13.8050 -35.0911 0
M  V30 4845 H  -29.3533 -15.2869 -33.8756 0
M  V30 4846 H  -28.5083 -14.5268 -32.5623 0
M  V30 4847 H  -24.8176 -15.9165 -33.1982 0
M  V30 4848 H  -25.6041 -14.3374 -33.3189 0
M  V30 4849 H  -25.7855 -15.3192 -31.8575 0
M  V30 4850 H  -31.0175 -15.0385 -35.3368 0
M  V30 4851 H  -30.1700 -16.4107 -37.7289 0
M  V30 4852 H  -32.3214 -17.7430 -37.2320 0
M  V30 4853 H  -32.5485 -16.6821 -35.8564 0
M  V30 4854 H  -30.3573 -17.4406 -34.9402 0
M  V30 4855 H  -31.4828 -18.9948 -33.7701 0
M  V30 4856 H  -32.8249 -18.7621 -34.8695 0
M  V30 4857 H  -31.6875 -20.0633 -35.1477 0
M  V30 4858 H  -29.8442 -19.8793 -36.3071 0
M  V30 4859 H  -29.9885 -18.6717 -37.5594 0
M  V30 4860 H  -28.8489 -18.4362 -36.2415 0
M  V30 4861 H  -32.7137 -13.9837 -37.0450 0
M  V30 4862 H  -33.9526 -14.2115 -39.6363 0
M  V30 4863 H  -31.2121 -12.3254 -38.3381 0
M  V30 4864 H  -30.8744 -10.5791 -40.5547 0
M  V30 4865 H  -29.1068 -11.5015 -38.2860 0
M  V30 4866 H  -31.0149 -9.7720 -38.0466 0
M  V30 4867 H  -30.0321 -8.6975 -38.9799 0
M  V30 4868 H  -27.3405 -9.8431 -38.8951 0
M  V30 4869 H  -27.4085 -11.1523 -40.0363 0
M  V30 4870 H  -28.1197 -9.5930 -40.4520 0
M  V30 4871 H  -29.9157 -8.5698 -36.3585 0
M  V30 4872 H  -28.8764 -9.9811 -36.4568 0
M  V30 4873 H  -28.4000 -8.4760 -37.2390 0
M  V30 4874 H  -29.5113 -13.8219 -39.8575 0
M  V30 4875 H  -27.8043 -13.7911 -42.2069 0
M  V30 4876 H  -27.1637 -16.0744 -41.4583 0
M  V30 4877 H  -28.4499 -16.0545 -40.2669 0
M  V30 4878 H  -31.0733 -14.7900 -41.6491 0
M  V30 4879 H  -31.2140 -16.0725 -44.3545 0
M  V30 4880 H  -32.4982 -13.8417 -43.5117 0
M  V30 4881 H  -32.7698 -17.7290 -43.4211 0
M  V30 4882 H  -32.6397 -17.0583 -41.8152 0
M  V30 4883 H  -30.2337 -17.7062 -41.7029 0
M  V30 4884 H  -30.3168 -18.3192 -43.3406 0
M  V30 4885 H  -40.9225 -18.5667 -37.5089 0
M  V30 4886 H  -41.5721 -18.9555 -36.0759 0
M  V30 4887 H  -40.4942 -20.8711 -36.7048 0
M  V30 4888 H  -39.2440 -19.7097 -38.5786 0
M  V30 4889 H  -38.4072 -21.0039 -37.7961 0
M  V30 4890 H  -38.6605 -17.2362 -37.5338 0
M  V30 4891 H  -36.1575 -20.7426 -37.2465 0
M  V30 4892 H  -36.6845 -15.8224 -37.1405 0
M  V30 4893 H  -34.2026 -19.2955 -36.8819 0
M  V30 4894 H  -34.4849 -16.8300 -36.8318 0
M  V30 4895 H  -40.8408 -19.2655 -34.2132 0
M  V30 4896 H  -38.6463 -19.4687 -32.4943 0
M  V30 4897 H  -40.5309 -18.0501 -31.9696 0
M  V30 4898 H  -40.3004 -19.1915 -30.6753 0
M  V30 4899 H  -43.8787 -19.2334 -30.8236 0
M  V30 4900 H  -42.5078 -18.4661 -30.0678 0
M  V30 4901 H  -41.1312 -21.8748 -33.2948 0
M  V30 4902 H  -40.3572 -23.8519 -31.3947 0
M  V30 4903 H  -39.1842 -23.0085 -34.6432 0
M  V30 4904 H  -37.7525 -25.4202 -35.1180 0
M  V30 4905 H  -36.6244 -24.3176 -36.9448 0
M  V30 4906 H  -37.1239 -22.7404 -36.3915 0
M  V30 4907 H  -36.9416 -22.4104 -33.4228 0
M  V30 4908 H  -34.1181 -22.9963 -33.1753 0
M  V30 4909 H  -35.9570 -21.0398 -31.7882 0
M  V30 4910 H  -33.9174 -19.8096 -30.9941 0
M  V30 4911 H  -34.1010 -21.3507 -30.1978 0
M  V30 4912 H  -32.9177 -21.1685 -31.4949 0
M  V30 4913 H  -34.7263 -19.3462 -33.2253 0
M  V30 4914 H  -33.9010 -20.6817 -34.0069 0
M  V30 4915 H  -35.6431 -20.5092 -34.1618 0
M  V30 4916 H  -37.0071 -23.5025 -31.0839 0
M  V30 4917 H  -35.4849 -24.7606 -28.9816 0
M  V30 4918 H  -37.9247 -25.7531 -28.4453 0
M  V30 4919 H  -38.4454 -24.6248 -29.6630 0
M  V30 4920 H  -37.0451 -25.9879 -31.9432 0
M  V30 4921 H  -36.6133 -28.7524 -31.3396 0
M  V30 4922 H  -37.0426 -29.0691 -33.7750 0
M  V30 4923 H  -38.2519 -28.0330 -33.0340 0
M  V30 4924 H  -36.9712 -27.3295 -34.0193 0
M  V30 4925 H  -34.5547 -26.2022 -32.7562 0
M  V30 4926 H  -32.4111 -27.9362 -33.5598 0
M  V30 4927 H  -31.1298 -25.8147 -33.7703 0
M  V30 4928 H  -32.6969 -25.6939 -34.5529 0
M  V30 4929 H  -32.4318 -24.9293 -32.9896 0
M  V30 4930 H  -33.1122 -26.0626 -30.5433 0
M  V30 4931 H  -30.6908 -26.7817 -29.2038 0
M  V30 4932 H  -33.3942 -25.7954 -28.2393 0
M  V30 4933 H  -32.3253 -25.3717 -25.9743 0
M  V30 4934 H  -32.6725 -27.0554 -26.2872 0
M  V30 4935 H  -31.0204 -26.4588 -26.4368 0
M  V30 4936 H  -32.1695 -23.7167 -27.7513 0
M  V30 4937 H  -30.6571 -24.4674 -28.2591 0
M  V30 4938 H  -31.9222 -24.1683 -29.4298 0
M  V30 4939 H  -34.0090 -28.1930 -29.1176 0
M  V30 4940 H  -33.5049 -30.3301 -27.3624 0
M  V30 4941 H  -33.0806 -30.0796 -30.8956 0
M  V30 4942 H  -32.2190 -31.4209 -32.4519 0
M  V30 4943 H  -32.4253 -32.8243 -31.4190 0
M  V30 4944 H  -30.4441 -29.8412 -30.7443 0
M  V30 4945 H  -27.8962 -30.9795 -31.2237 0
M  V30 4946 H  -28.9219 -28.5896 -29.7132 0
M  V30 4947 H  -28.4855 -28.6841 -32.2485 0
M  V30 4948 H  -26.7961 -28.7558 -31.8689 0
M  V30 4949 H  -26.6011 -27.8287 -29.1533 0
M  V30 4950 H  -27.1317 -29.1630 -28.1609 0
M  V30 4951 H  -26.0020 -29.4407 -29.4859 0
M  V30 4952 H  -28.1334 -26.4078 -32.3059 0
M  V30 4953 H  -28.2927 -26.4813 -30.5584 0
M  V30 4954 H  -26.6937 -26.4951 -31.2999 0
M  V30 4955 H  -29.9596 -30.9922 -28.3068 0
M  V30 4956 H  -28.0319 -32.2501 -26.5908 0
M  V30 4957 H  -30.0980 -32.7210 -25.1788 0
M  V30 4958 H  -31.0763 -32.0592 -26.4564 0
M  V30 4959 H  -29.9051 -29.8629 -26.1976 0
M  V30 4960 H  -31.5787 -29.3028 -24.8265 0
M  V30 4961 H  -31.8589 -30.9948 -24.4591 0
M  V30 4962 H  -30.7946 -30.0469 -23.4407 0
M  V30 4963 H  -28.5989 -29.7493 -23.8199 0
M  V30 4964 H  -28.1637 -31.3782 -24.3134 0
M  V30 4965 H  -27.8087 -30.0192 -25.3619 0
M  V30 4966 H  -30.4003 -33.5518 -28.9487 0
M  V30 4967 H  -30.0799 -36.2831 -28.0291 0
M  V30 4968 H  -31.2439 -36.9366 -30.0432 0
M  V30 4969 H  -31.1239 -35.3431 -30.7243 0
M  V30 4970 H  -32.8249 -34.5128 -29.5291 0
M  V30 4971 H  -32.5128 -35.3781 -28.0548 0
M  V30 4972 H  -34.6120 -36.2704 -28.9028 0
M  V30 4973 H  -33.4128 -37.4698 -29.2740 0
M  V30 4974 H  -33.4348 -37.1187 -31.4809 0
M  V30 4975 H  -36.1815 -34.1328 -31.6173 0
M  V30 4976 H  -35.5450 -34.6148 -30.0640 0
M  V30 4977 H  -35.4467 -35.1868 -33.5450 0
M  V30 4978 H  -34.2733 -36.4680 -33.4545 0
M  V30 4979 H  -28.4538 -34.2301 -30.4764 0
M  V30 4980 H  -26.9524 -36.3689 -31.6805 0
M  V30 4981 H  -26.4496 -33.3518 -31.6681 0
M  V30 4982 H  -27.4775 -34.1867 -32.7899 0
M  V30 4983 H  -24.8880 -35.1650 -34.9740 0
M  V30 4984 H  -26.6009 -35.0642 -34.6575 0
M  V30 4985 H  -25.3090 -37.4520 -30.8539 0
M  V30 4986 H  -24.3531 -37.0387 -28.2422 0
M  V30 4987 H  -22.9075 -39.0114 -28.7800 0
M  V30 4988 H  -24.5666 -39.2567 -29.3014 0
M  V30 4989 H  -23.3250 -38.8526 -30.4845 0
M  V30 4990 H  -22.9434 -36.0044 -31.3463 0
M  V30 4991 H  -20.3466 -35.3548 -30.1608 0
M  V30 4992 H  -20.1255 -34.3572 -32.6188 0
M  V30 4993 H  -21.5655 -35.2549 -32.9370 0
M  V30 4994 H  -20.2562 -37.0868 -33.2720 0
M  V30 4995 H  -19.8589 -37.1088 -31.5798 0
M  V30 4996 H  -18.0143 -35.3354 -32.1683 0
M  V30 4997 H  -18.3274 -35.7399 -33.8289 0
M  V30 4998 H  -17.3571 -37.6971 -31.6770 0
M  V30 4999 H  -16.3628 -36.9689 -32.9221 0
M  V30 5000 H  -17.6764 -38.0965 -34.5688 0
M  V30 5001 H  -17.0009 -39.1633 -33.5076 0
M  V30 5002 H  -18.6039 -38.7946 -33.3982 0
M  V30 5003 H  -23.3718 -33.6399 -30.7886 0
M  V30 5004 H  -22.0596 -31.0141 -30.5146 0
M  V30 5005 H  -24.4396 -30.1949 -30.9143 0
M  V30 5006 H  -24.9252 -31.8548 -31.0808 0
M  V30 5007 H  -23.2810 -32.0463 -33.0096 0
M  V30 5008 H  -25.1006 -31.7296 -34.2603 0
M  V30 5009 H  -25.8811 -30.8278 -32.9815 0
M  V30 5010 H  -24.9389 -29.9884 -34.1938 0
M  V30 5011 H  -22.9494 -29.2965 -33.7317 0
M  V30 5012 H  -22.3889 -29.4369 -32.0894 0
M  V30 5013 H  -21.7180 -30.4796 -33.3369 0
M  V30 5014 H  -24.1466 -33.1754 -28.5612 0
M  V30 5015 H  -25.0467 -31.3937 -26.6840 0
M  V30 5016 H  -24.3962 -34.3424 -26.5027 0
M  V30 5017 H  -25.9342 -33.5711 -26.7350 0
M  V30 5018 H  -25.7203 -32.5952 -24.3842 0
M  V30 5019 H  -24.2611 -33.5323 -24.1668 0
M  V30 5020 H  -25.6529 -35.6304 -24.6860 0
M  V30 5021 H  -27.0614 -34.6218 -24.5175 0
M  V30 5022 H  -24.9483 -35.0702 -22.3395 0
M  V30 5023 H  -26.5321 -35.8162 -22.3979 0
M  V30 5024 H  -26.0128 -32.9392 -22.1266 0
M  V30 5025 H  -27.5074 -33.6310 -22.2122 0
M  V30 5026 H  -26.5135 -33.9619 -20.9376 0
M  V30 5027 H  -21.4016 -32.1024 -23.6811 0
M  V30 5028 H  -20.1830 -33.9945 -24.1002 0
M  V30 5029 H  -18.9041 -32.9027 -24.5986 0
M  V30 5030 H  -19.7436 -34.7400 -26.3644 0
M  V30 5031 H  -19.5592 -33.0761 -26.9190 0
M  V30 5032 H  -21.7952 -33.5018 -27.5216 0
M  V30 5033 H  -22.1272 -34.4411 -26.0626 0
M  V30 5034 H  -20.1700 -30.9423 -26.8739 0
M  V30 5035 H  -18.7142 -28.7464 -25.7768 0
M  V30 5036 H  -18.1090 -29.6249 -27.9136 0
M  V30 5037 H  -19.4204 -29.3686 -29.9794 0
M  V30 5038 H  -20.2842 -30.3614 -28.8280 0
M  V30 5039 H  -20.7704 -28.6860 -29.0885 0
M  V30 5040 H  -17.7828 -27.5895 -29.1993 0
M  V30 5041 H  -19.0872 -26.7701 -28.3653 0
M  V30 5042 H  -17.6229 -27.2072 -27.4924 0
M  V30 5043 H  -22.1234 -29.0454 -26.9735 0
M  V30 5044 H  -22.7555 -26.3034 -26.8925 0
M  V30 5045 H  -24.4803 -28.7905 -26.5805 0
M  V30 5046 H  -24.1558 -27.9188 -28.0478 0
M  V30 5047 H  -24.9861 -25.4355 -28.1986 0
M  V30 5048 H  -26.3828 -28.2778 -25.2663 0
M  V30 5049 H  -27.0347 -24.0997 -27.8871 0
M  V30 5050 H  -28.4348 -26.9238 -24.9394 0
M  V30 5051 H  -29.0134 -23.8713 -26.7407 0
M  V30 5052 H  -23.1100 -28.7956 -24.3175 0
M  V30 5053 H  -24.1991 -27.0416 -22.3676 0
M  V30 5054 H  -23.5774 -28.8770 -20.7320 0
M  V30 5055 H  -22.7220 -29.6883 -22.0275 0
M  V30 5056 H  -20.8429 -27.5733 -23.3406 0
M  V30 5057 H  -19.7240 -26.3643 -20.9719 0
M  V30 5058 H  -18.5926 -28.0979 -22.5116 0
M  V30 5059 H  -17.6343 -26.7643 -21.9244 0
M  V30 5060 H  -18.8204 -26.8834 -24.4874 0
M  V30 5061 H  -20.7296 -25.1436 -24.1694 0
M  V30 5062 H  -19.4313 -22.6079 -24.0272 0
M  V30 5063 H  -21.2133 -22.0819 -25.8551 0
M  V30 5064 H  -21.8337 -23.6724 -25.5836 0
M  V30 5065 H  -19.5603 -24.5993 -26.1985 0
M  V30 5066 H  -20.0777 -23.4816 -28.7716 0
M  V30 5067 H  -20.6714 -24.9916 -28.1096 0
M  V30 5068 H  -21.6209 -23.5264 -27.9487 0
M  V30 5069 H  -17.7486 -23.3738 -26.4216 0
M  V30 5070 H  -18.4530 -22.4489 -27.7312 0
M  V30 5071 H  -18.6476 -21.9141 -26.0734 0
M  V30 5072 H  -20.3319 -20.5204 -23.7235 0
M  V30 5073 H  -22.4988 -20.2390 -21.7695 0
M  V30 5074 H  -20.5462 -18.7952 -21.5049 0
M  V30 5075 H  -21.9405 -17.8264 -21.8453 0
M  V30 5076 H  -24.2475 -18.5920 -22.2804 0
M  V30 5077 H  -25.8377 -19.5378 -24.3076 0
M  V30 5078 H  -27.3550 -17.7488 -23.7075 0
M  V30 5079 H  -26.6063 -18.3791 -22.2515 0
M  V30 5080 H  -26.0661 -16.8347 -22.9142 0
M  V30 5081 H  -23.4662 -16.9116 -24.6873 0
M  V30 5082 H  -24.6529 -15.9259 -27.1666 0
M  V30 5083 H  -21.8723 -15.3684 -26.0382 0
M  V30 5084 H  -22.1675 -13.2213 -27.4164 0
M  V30 5085 H  -21.8786 -14.6849 -28.3255 0
M  V30 5086 H  -23.5069 -14.0118 -28.2198 0
M  V30 5087 H  -22.8274 -13.2536 -25.1304 0
M  V30 5088 H  -24.4442 -13.8149 -25.5404 0
M  V30 5089 H  -23.4849 -14.6683 -24.3343 0
M  V30 5090 H  -21.8848 -18.0469 -26.2227 0
M  V30 5091 H  -21.0282 -18.6682 -28.9166 0
M  V30 5092 H  -20.1562 -20.7656 -27.5671 0
M  V30 5093 H  -20.5974 -19.8634 -26.1551 0
M  V30 5094 H  -18.5429 -19.3302 -28.2640 0
M  V30 5095 H  -18.2017 -19.6148 -26.5947 0
M  V30 5096 H  -19.4310 -17.1800 -26.3216 0
M  V30 5097 H  -19.1544 -17.1329 -28.0333 0
M  V30 5098 H  -16.8817 -17.2442 -27.9236 0
M  V30 5099 H  -16.6411 -16.2025 -24.0078 0
M  V30 5100 H  -18.1312 -16.9009 -24.5862 0
M  V30 5101 H  -14.8328 -15.9947 -25.4323 0
M  V30 5102 H  -14.9802 -16.4146 -27.1141 0
M  V30 5103 H  -23.4271 -20.1254 -26.6463 0
M  V30 5104 H  -24.1012 -22.4148 -28.1991 0
M  V30 5105 H  -26.3229 -22.2022 -26.9212 0
M  V30 5106 H  -25.7062 -20.7526 -26.2096 0
M  V30 5107 H  -23.8005 -22.2002 -25.1735 0
M  V30 5108 H  -24.5460 -23.5343 -25.9847 0
M  V30 5109 H  -26.4414 -23.5972 -24.6828 0
M  V30 5110 H  -26.3537 -21.9404 -24.1327 0
M  V30 5111 H  -24.0870 -23.4856 -23.2574 0
M  V30 5112 H  -27.3704 -23.9919 -20.9258 0
M  V30 5113 H  -27.5829 -23.3770 -22.5443 0
M  V30 5114 H  -25.2450 -24.5183 -20.1567 0
M  V30 5115 H  -23.8585 -24.2885 -21.1853 0
M  V30 5116 H  -25.2261 -19.0061 -28.3572 0
M  V30 5117 H  -27.3625 -19.4094 -30.1886 0
M  V30 5118 H  -27.2225 -16.9667 -30.5064 0
M  V30 5119 H  -27.0636 -17.3539 -28.7940 0
M  V30 5120 H  -25.6526 -16.9063 -29.7379 0
M  V30 5121 H  -23.8750 -18.6676 -30.6749 0
M  V30 5122 H  -23.9646 -18.5743 -33.5363 0
M  V30 5123 H  -21.4627 -18.6797 -33.2954 0
M  V30 5124 H  -22.1979 -17.4625 -32.2724 0
M  V30 5125 H  -21.6551 -18.9823 -31.5739 0
M  V30 5126 H  -23.5919 -21.2628 -31.2039 0
M  V30 5127 H  -22.8101 -23.2056 -33.1978 0
M  V30 5128 H  -24.0124 -23.6539 -30.4377 0
M  V30 5129 H  -22.3219 -23.3413 -30.6904 0
M  V30 5130 H  -23.7922 -25.6997 -31.9614 0
M  V30 5131 H  -21.1687 -26.4516 -31.9612 0
M  V30 5132 H  -21.9301 -25.6122 -33.2952 0
M  V30 5133 H  -20.9636 -24.7152 -32.1334 0
M  V30 5134 H  -22.0057 -26.6378 -29.9310 0
M  V30 5135 H  -23.0049 -25.4032 -29.2110 0
M  V30 5136 H  -23.7526 -26.7732 -30.0239 0
M  V30 5137 H  -25.9234 -22.2568 -31.6768 0
M  V30 5138 H  -27.6065 -24.0401 -33.0897 0
M  V30 5139 H  -28.0307 -21.3154 -31.8453 0
M  V30 5140 H  -27.7094 -23.5080 -30.4760 0
M  V30 5141 H  -29.2849 -23.9586 -31.0377 0
M  V30 5142 H  -30.5075 -21.5585 -32.0935 0
M  V30 5143 H  -29.7348 -21.3159 -33.6342 0
M  V30 5144 H  -30.2568 -22.9340 -33.1601 0
M  V30 5145 H  -29.0437 -22.7148 -28.7225 0
M  V30 5146 H  -28.8906 -21.2484 -29.6756 0
M  V30 5147 H  -30.3567 -22.2170 -29.7843 0
M  V30 5148 H  -26.3466 -20.7877 -33.9400 0
M  V30 5149 H  -27.5775 -20.3918 -36.4325 0
M  V30 5150 H  -24.6802 -19.5768 -35.8915 0
M  V30 5151 H  -25.9580 -18.9201 -34.9041 0
M  V30 5152 H  -26.0835 -16.2860 -37.1532 0
M  V30 5153 H  -25.6226 -16.8151 -35.5471 0
M  V30 5154 H  -24.4671 -22.1266 -35.8190 0
M  V30 5155 H  -24.0058 -22.7832 -38.5478 0
M  V30 5156 H  -22.5939 -24.6532 -37.5192 0
M  V30 5157 H  -23.0991 -24.1090 -35.9530 0
M  V30 5158 H  -22.0216 -21.9314 -36.2940 0
M  V30 5159 H  -21.6915 -22.2910 -37.9713 0
M  V30 5160 H  -18.7902 -24.8484 -37.8865 0
M  V30 5161 H  -20.4969 -25.2091 -38.1350 0
M  V30 5162 H  -19.7759 -23.7675 -38.8735 0
M  V30 5163 H  -25.8806 -24.4781 -36.0092 0
M  V30 5164 H  -26.3437 -26.8631 -37.5117 0
M  V30 5165 H  -27.5881 -25.6532 -35.0274 0
M  V30 5166 H  -28.7539 -27.8199 -34.5773 0
M  V30 5167 H  -29.4726 -26.9487 -35.9084 0
M  V30 5168 H  -28.4212 -28.3320 -36.2270 0
M  V30 5169 H  -26.4321 -27.5149 -33.8905 0
M  V30 5170 H  -25.8628 -28.1306 -35.4353 0
M  V30 5171 H  -25.2846 -26.5870 -34.8337 0
M  V30 5172 H  -28.0747 -23.7700 -37.4180 0
M  V30 5173 H  -30.4125 -24.6434 -38.7953 0
M  V30 5174 H  -30.1682 -21.9414 -39.3805 0
M  V30 5175 H  -29.1831 -22.0535 -37.9631 0
M  V30 5176 H  -30.2562 -22.9495 -35.7839 0
M  V30 5177 H  -32.5646 -22.2090 -39.3479 0
M  V30 5178 H  -32.3036 -22.9566 -34.4622 0
M  V30 5179 H  -34.6149 -22.2580 -37.9922 0
M  V30 5180 H  -34.4873 -22.5788 -35.5640 0
M  V30 5181 H  -27.1896 -23.9193 -40.0377 0
M  V30 5182 H  -28.1552 -23.6021 -42.7867 0
M  V30 5183 H  -25.3816 -23.5778 -41.5371 0
M  V30 5184 H  -26.3703 -22.2264 -41.9897 0
M  V30 5185 H  -26.2616 -23.0218 -44.4198 0
M  V30 5186 H  -25.0476 -24.1816 -43.9192 0
M  V30 5187 H  -23.2214 -21.2243 -45.2149 0
M  V30 5188 H  -24.2518 -22.4877 -45.8347 0
M  V30 5189 H  -26.1513 -25.9739 -40.9703 0
M  V30 5190 H  -25.9921 -27.6803 -43.3799 0
M  V30 5191 H  -23.9620 -28.4676 -42.4536 0
M  V30 5192 H  -24.3631 -27.9564 -40.8358 0
M  V30 5193 H  -24.0953 -25.5701 -41.5112 0
M  V30 5194 H  -23.6885 -26.0715 -43.1389 0
M  V30 5195 H  -20.5843 -24.5726 -41.0205 0
M  V30 5196 H  -22.0015 -24.1253 -41.9906 0
M  V30 5197 H  -22.1854 -24.4843 -40.2709 0
M  V30 5198 H  -27.7728 -27.6387 -40.4691 0
M  V30 5199 H  -28.4858 -30.4868 -40.5152 0
M  V30 5200 H  -29.0723 -29.2354 -39.4299 0
M  V30 5201 H  -28.5769 -31.3396 -38.0395 0
M  V30 5202 H  -26.4429 -30.7797 -36.2697 0
M  V30 5203 H  -27.1238 -32.8942 -35.1989 0
M  V30 5204 H  -28.0302 -33.3586 -36.6170 0
M  V30 5205 H  -29.4796 -31.2253 -36.1932 0
M  V30 5206 H  -28.6587 -31.0964 -34.6601 0
M  V30 5207 H  -26.8254 -33.2760 -38.8233 0
M  V30 5208 H  -24.4734 -34.7400 -38.3571 0
M  V30 5209 H  -26.0329 -34.3198 -40.9614 0
M  V30 5210 H  -26.9955 -36.3170 -40.2600 0
M  V30 5211 H  -25.2503 -36.6314 -41.5787 0
M  V30 5212 H  -23.9206 -35.4948 -41.5242 0
M  V30 5213 H  -24.1637 -36.6226 -40.1920 0
M  V30 5214 H  -25.0245 -31.7811 -40.2713 0
M  V30 5215 H  -23.6607 -30.4754 -41.5319 0
M  V30 5216 H  -22.5372 -31.8044 -41.7305 0
M  V30 5217 H  -23.6958 -30.1173 -38.6936 0
M  V30 5218 H  -21.1886 -28.7463 -38.3142 0
M  V30 5219 H  -23.4893 -29.1288 -36.3652 0
M  V30 5220 H  -22.6131 -27.0793 -35.2300 0
M  V30 5221 H  -21.4357 -28.3643 -35.1178 0
M  V30 5222 H  -21.2117 -27.0790 -36.2913 0
M  V30 5223 H  -24.0789 -26.8146 -37.0509 0
M  V30 5224 H  -22.8678 -26.8675 -38.3269 0
M  V30 5225 H  -24.2595 -27.9341 -38.3868 0
M  V30 5226 H  -22.4754 -31.8684 -37.2034 0
M  V30 5227 H  -20.6073 -32.3706 -35.1155 0
M  V30 5228 H  -21.3749 -34.7483 -35.4358 0
M  V30 5229 H  -22.7060 -33.6129 -35.3117 0
M  V30 5230 H  -22.2426 -34.2518 -36.8881 0
M  V30 5231 H  -20.0691 -32.2553 -38.5339 0
M  V30 5232 H  -18.4063 -33.0258 -39.9055 0
M  V30 5233 H  -17.8973 -34.1867 -38.6959 0
M  V30 5234 H  -18.1328 -30.8720 -37.5511 0
M  V30 5235 H  -15.3729 -30.0932 -38.1459 0
M  V30 5236 H  -16.0697 -28.0650 -36.7864 0
M  V30 5237 H  -17.6209 -28.7966 -36.5333 0
M  V30 5238 H  -19.0247 -29.3257 -38.7133 0
M  V30 5239 H  -15.6089 -26.6936 -38.6441 0
M  V30 5240 H  -19.8327 -28.2031 -40.7320 0
M  V30 5241 H  -16.4702 -25.5641 -40.6488 0
M  V30 5242 H  -18.5802 -26.3059 -41.6906 0
M  V30 5243 H  -15.2796 -32.5204 -36.7379 0
M  V30 5244 H  -15.4222 -32.4013 -33.9680 0
M  V30 5245 H  -14.1201 -34.4759 -33.9570 0
M  V30 5246 H  -12.5212 -33.9696 -35.4392 0
M  V30 5247 H  -15.4780 -35.8710 -35.4332 0
M  V30 5248 H  -16.4885 -34.6151 -34.7286 0
M  V30 5249 H  -15.9549 -34.4812 -36.4006 0
M  V30 5250 H  -12.6919 -31.3481 -36.0098 0
M  V30 5251 H  -10.8504 -31.1002 -33.7526 0
M  V30 5252 H  -10.4874 -29.6171 -36.4010 0
M  V30 5253 H  -10.4066 -31.3535 -36.4200 0
M  V30 5254 H  -6.9323 -30.1160 -36.0102 0
M  V30 5255 H  -8.2112 -29.8722 -37.1799 0
M  V30 5256 H  -13.0056 -28.8521 -35.5663 0
M  V30 5257 H  -12.2116 -26.5329 -34.1260 0
M  V30 5258 H  -13.9868 -25.4288 -35.2585 0
M  V30 5259 H  -14.9607 -26.8650 -35.3841 0
M  V30 5260 H  -12.5402 -26.3686 -36.7813 0
M  V30 5261 H  -14.8732 -28.9206 -33.6301 0
M  V30 5262 H  -16.1586 -27.5577 -31.4822 0
M  V30 5263 H  -17.1626 -29.8941 -31.0660 0
M  V30 5264 H  -16.1442 -30.4909 -32.3419 0
M  V30 5265 H  -17.3057 -28.9366 -33.9501 0
M  V30 5266 H  -19.5136 -30.2231 -33.9079 0
M  V30 5267 H  -18.0604 -31.2006 -33.9382 0
M  V30 5268 H  -18.9513 -30.9962 -32.4292 0
M  V30 5269 H  -19.7205 -28.3226 -32.5656 0
M  V30 5270 H  -18.4207 -27.7140 -31.5697 0
M  V30 5271 H  -18.5453 -27.2115 -33.2478 0
M  V30 5272 H  -13.4463 -29.8802 -31.5586 0
M  V30 5273 H  -13.3239 -30.2552 -28.7251 0
M  V30 5274 H  -11.8500 -27.8656 -30.9714 0
M  V30 5275 H  -10.2098 -26.5513 -29.0394 0
M  V30 5276 H  -10.2524 -24.6699 -30.7281 0
M  V30 5277 H  -11.3828 -25.5802 -31.6830 0
M  V30 5278 H  -9.5173 -27.4601 -31.6573 0
M  V30 5279 H  -8.4677 -26.1924 -31.0882 0
M  V30 5280 H  -7.6978 -26.8875 -34.9729 0
M  V30 5281 H  -7.0063 -26.9604 -33.3443 0
M  V30 5282 H  -8.3280 -28.0487 -33.7968 0
M  V30 5283 H  -13.6245 -25.9734 -30.0844 0
M  V30 5284 H  -14.0157 -23.6012 -28.5517 0
M  V30 5285 H  -16.5022 -24.2955 -28.7853 0
M  V30 5286 H  -15.9463 -25.7167 -29.6193 0
M  V30 5287 H  -14.9236 -24.2727 -31.3723 0
M  V30 5288 H  -16.8733 -24.3045 -32.5096 0
M  V30 5289 H  -17.6403 -24.8581 -31.0330 0
M  V30 5290 H  -17.6541 -23.1550 -31.4354 0
M  V30 5291 H  -15.9172 -21.7312 -31.1968 0
M  V30 5292 H  -15.6035 -22.0535 -29.5023 0
M  V30 5293 H  -14.3066 -22.1882 -30.6799 0
M  V30 5294 H  -14.5012 -27.0522 -27.7583 0
M  V30 5295 H  -15.6619 -26.6187 -25.1915 0
M  V30 5296 H  -14.2516 -29.0312 -26.4214 0
M  V30 5297 H  -15.9367 -28.6212 -26.5843 0
M  V30 5298 H  -16.0648 -28.7488 -23.9794 0
M  V30 5299 H  -14.5248 -29.5745 -24.0561 0
M  V30 5300 H  -16.2425 -32.2593 -26.1754 0
M  V30 5301 H  -15.0059 -31.0829 -26.5406 0
M  V30 5302 H  -12.3152 -26.8893 -26.3248 0
M  V30 5303 H  -11.1410 -26.8069 -23.6490 0
M  V30 5304 H  -9.0128 -26.6639 -25.0786 0
M  V30 5305 H  -10.0346 -26.8312 -26.4809 0
M  V30 5306 H  -10.8439 -29.0607 -25.5304 0
M  V30 5307 H  -9.8041 -28.8204 -24.1535 0
M  V30 5308 H  -7.1989 -29.0510 -27.2331 0
M  V30 5309 H  -8.1015 -27.6054 -26.8658 0
M  V30 5310 H  -12.6345 -24.4303 -25.4178 0
M  V30 5311 H  -12.7365 -22.2398 -25.3464 0
M  V30 5312 H  -10.6594 -23.3349 -26.9926 0
M  V30 5313 H  -8.5535 -21.2191 -27.0750 0
M  V30 5314 H  -7.6538 -22.8261 -28.8506 0
M  V30 5315 H  -8.8976 -23.9572 -28.3862 0
M  V30 5316 H  -7.9322 -23.5814 -25.9742 0
M  V30 5317 H  -6.5162 -22.9230 -26.7344 0
M  V30 5318 H  -6.7120 -25.3220 -28.1218 0
M  V30 5319 H  -7.6943 -25.7131 -26.7533 0
M  V30 5320 H  -4.8718 -25.5063 -26.7060 0
M  V30 5321 H  -4.5064 -26.0582 -23.2935 0
M  V30 5322 H  -3.7347 -26.0755 -24.8541 0
M  V30 5323 H  -6.7256 -25.5281 -23.0857 0
M  V30 5324 H  -7.6691 -25.0935 -24.4810 0
M  V30 5325 H  -10.2687 -19.7021 -27.4962 0
M  V30 5326 H  -12.1242 -19.9246 -29.5545 0
M  V30 5327 H  -12.7019 -17.6441 -29.0136 0
M  V30 5328 H  -11.1255 -17.3064 -28.3587 0
M  V30 5329 H  -10.9231 -17.3893 -25.8742 0
M  V30 5330 H  -12.2580 -18.3239 -23.9062 0
M  V30 5331 H  -14.4767 -19.9877 -28.4907 0
M  V30 5332 H  -14.6171 -19.9771 -23.5101 0
M  V30 5333 H  -16.2332 -21.2576 -27.2936 0
M  V30 5334 H  -16.3213 -21.2546 -24.8102 0
M  V30 5335 H  -8.9618 -18.1911 -29.5326 0
M  V30 5336 H  -9.3023 -17.1202 -32.1637 0
M  V30 5337 H  -6.8785 -16.4779 -32.0222 0
M  V30 5338 H  -6.7957 -17.2794 -30.4720 0
M  V30 5339 H  -7.8110 -20.1496 -30.9609 0
M  V30 5340 H  -6.6318 -20.9136 -33.4690 0
M  V30 5341 H  -7.0404 -23.3054 -32.5099 0
M  V30 5342 H  -7.5878 -22.5109 -31.0708 0
M  V30 5343 H  -5.4036 -21.5078 -30.6674 0
M  V30 5344 H  -4.8361 -21.9378 -32.2620 0
M  V30 5345 H  -9.8135 -21.6690 -31.9502 0
M  V30 5346 H  -10.8795 -23.1575 -34.0803 0
M  V30 5347 H  -13.0523 -22.7622 -32.9411 0
M  V30 5348 H  -11.8023 -23.1734 -31.7790 0
M  V30 5349 H  -12.3167 -21.5038 -31.9504 0
M  V30 5350 H  -10.9000 -19.6031 -33.5110 0
M  V30 5351 H  -12.7338 -18.9603 -35.5702 0
M  V30 5352 H  -11.8158 -16.6246 -35.2296 0
M  V30 5353 H  -12.2398 -17.4230 -33.7220 0
M  V30 5354 H  -10.5519 -17.2961 -34.2067 0
M  V30 5355 H  -9.1400 -19.0990 -35.5574 0
M  V30 5356 H  -8.8459 -18.3452 -38.3238 0
M  V30 5357 H  -6.9878 -19.5885 -36.2644 0
M  V30 5358 H  -5.0647 -19.0538 -37.8107 0
M  V30 5359 H  -6.0350 -20.4016 -38.3512 0
M  V30 5360 H  -6.2201 -18.8214 -39.1188 0
M  V30 5361 H  -5.8980 -17.3810 -36.2509 0
M  V30 5362 H  -6.9979 -16.7961 -37.4963 0
M  V30 5363 H  -7.6054 -17.1935 -35.8964 0
M  V30 5364 H  -9.2424 -21.4500 -36.6075 0
M  V30 5365 H  -8.6378 -23.1190 -38.8370 0
M  V30 5366 H  -10.0269 -23.5863 -36.1678 0
M  V30 5367 H  -8.3522 -23.8999 -36.5461 0
M  V30 5368 H  -9.0560 -26.9818 -38.3382 0
M  V30 5369 H  -7.9203 -25.6697 -38.2211 0
M  V30 5370 H  -11.7151 -21.7646 -37.5118 0
M  V30 5371 H  -13.4628 -23.0885 -39.3525 0
M  V30 5372 H  -14.9669 -21.0403 -38.6007 0
M  V30 5373 H  -13.6642 -20.6720 -37.5260 0
M  V30 5374 H  -13.9191 -23.0447 -36.5915 0
M  V30 5375 H  -15.1485 -22.1487 -34.9306 0
M  V30 5376 H  -15.2864 -20.6989 -35.9013 0
M  V30 5377 H  -16.5630 -21.8938 -35.9406 0
M  V30 5378 H  -16.6277 -23.6428 -37.2796 0
M  V30 5379 H  -15.7850 -23.3611 -38.7895 0
M  V30 5380 H  -15.1781 -24.5508 -37.6521 0
M  V30 5381 H  -11.4678 -20.1779 -39.6454 0
M  V30 5382 H  -12.7632 -19.1394 -41.9987 0
M  V30 5383 H  -10.7412 -17.7211 -42.1472 0
M  V30 5384 H  -11.3547 -17.7439 -40.4998 0
M  V30 5385 H  -9.9324 -18.6911 -40.9221 0
M  V30 5386 H  -10.4085 -21.7160 -41.4358 0
M  V30 5387 H  -9.5431 -21.9359 -44.2061 0
M  V30 5388 H  -8.4480 -24.0426 -43.3257 0
M  V30 5389 H  -9.1561 -23.7384 -41.7717 0
M  V30 5390 H  -7.9012 -21.4915 -41.7574 0
M  V30 5391 H  -7.1496 -21.9741 -43.2480 0
M  V30 5392 H  -6.1699 -23.9764 -42.1336 0
M  V30 5393 H  -6.9647 -23.5507 -40.6376 0
M  V30 5394 H  -5.6574 -21.4113 -40.5279 0
M  V30 5395 H  -4.8714 -21.8051 -42.0465 0
M  V30 5396 H  -3.9485 -23.7497 -41.0079 0
M  V30 5397 H  -3.5195 -22.3824 -40.1922 0
M  V30 5398 H  -4.6808 -23.3790 -39.5785 0
M  V30 5399 H  -12.4547 -22.8080 -42.6555 0
M  V30 5400 H  -12.9465 -25.3374 -43.9384 0
M  V30 5401 H  -14.8917 -23.3236 -42.6877 0
M  V30 5402 H  -14.0177 -24.5492 -41.7845 0
M  V30 5403 H  -15.1564 -26.1179 -42.7957 0
M  V30 5404 H  -14.5019 -25.7888 -45.5816 0
M  V30 5405 H  -14.7046 -24.0465 -47.8373 0
M  V30 5406 H  -16.2751 -26.5471 -47.0628 0
M  V30 5407 H  -14.7832 -26.5269 -47.9599 0
M  V30 5408 H  -15.9362 -25.2452 -49.8436 0
M  V30 5409 H  -17.3914 -25.2815 -48.9068 0
M  V30 5410 H  -16.1035 -27.8936 -49.6068 0
M  V30 5411 H  -17.0961 -27.0783 -50.7877 0
M  V30 5412 H  -18.1216 -27.5132 -48.0115 0
M  V30 5413 H  -19.6319 -29.7606 -51.0502 0
M  V30 5414 H  -18.1938 -28.8201 -51.3393 0
M  V30 5415 H  -20.6420 -29.7230 -48.9759 0
M  V30 5416 H  -19.9865 -28.7576 -47.6847 0
M  V30 5417 H  -16.7040 -24.4967 -44.9467 0
M  V30 5418 H  -19.1256 -23.2987 -45.7118 0
M  V30 5419 H  -17.6060 -23.5841 -43.1092 0
M  V30 5420 H  -19.0020 -24.4772 -43.6397 0
M  V30 5421 H  -21.1789 -22.4661 -44.0660 0
M  V30 5422 H  -22.0488 -20.8790 -42.2718 0
M  V30 5423 H  -17.0894 -22.4640 -40.9816 0
M  V30 5424 H  -21.0613 -19.6984 -39.7898 0
M  V30 5425 H  -17.0926 -21.1017 -38.9107 0
M  V30 5426 H  -19.0395 -19.7128 -38.3187 0
M  V30 5427 H  -16.0795 -21.7340 -44.6436 0
M  V30 5428 H  -17.0800 -19.0722 -44.6245 0
M  V30 5429 H  -14.2676 -20.1943 -44.9615 0
M  V30 5430 H  -15.0123 -19.6876 -43.4768 0
M  V30 5431 H  -13.5909 -18.5334 -46.7155 0
M  V30 5432 H  -15.0620 -17.3225 -42.8409 0
M  V30 5433 H  -12.7083 -16.2573 -47.0984 0
M  V30 5434 H  -14.1255 -15.0542 -43.2056 0
M  V30 5435 H  -12.3788 -14.1816 -46.2228 0
M  V30 5436 H  -15.6820 -21.0964 -47.2611 0
M  V30 5437 H  -15.6197 -18.9226 -49.1699 0
M  V30 5438 H  -15.6745 -21.8251 -50.0686 0
M  V30 5439 H  -14.3936 -21.3841 -48.9858 0
M  V30 5440 H  -12.7929 -18.9842 -51.1871 0
M  V30 5441 H  -13.3325 -19.0623 -49.5302 0
M  V30 5442 H  -18.1096 -21.2924 -48.3375 0
M  V30 5443 H  -19.7886 -20.8228 -50.5997 0
M  V30 5444 H  -21.5667 -21.7765 -48.9937 0
M  V30 5445 H  -20.3052 -21.8947 -47.7962 0
M  V30 5446 H  -19.0107 -23.4119 -49.3585 0
M  V30 5447 H  -20.2951 -23.2676 -50.5355 0
M  V30 5448 H  -21.0609 -26.4448 -48.9659 0
M  V30 5449 H  -19.9720 -25.7377 -50.1323 0
M  V30 5450 H  -19.7287 -19.3873 -47.3062 0
M  V30 5451 H  -21.2794 -17.0479 -48.2504 0
M  V30 5452 H  -22.6603 -17.1685 -46.1454 0
M  V30 5453 H  -21.3886 -18.6939 -45.0420 0
M  V30 5454 H  -24.3471 -18.7235 -46.9595 0
M  V30 5455 H  -23.6504 -17.8786 -48.3357 0
M  V30 5456 H  -23.1826 -19.5438 -47.9917 0
M  V30 5457 H  -17.4323 -16.0912 -45.8311 0
M  V30 5458 H  -16.1747 -14.5920 -47.1703 0
M  V30 5459 H  -17.5980 -13.6644 -47.6287 0
M  V30 5460 H  -16.7343 -16.3446 -48.7002 0
M  V30 5461 H  -17.2565 -14.9398 -49.6208 0
M  V30 5462 H  -19.5502 -15.2738 -48.9697 0
M  V30 5463 H  -18.9785 -16.9324 -49.1242 0
M  V30 5464 H  -20.0191 -13.6950 -46.6365 0
M  V30 5465 H  -19.3148 -11.8555 -44.6132 0
M  V30 5466 H  -21.5618 -10.8497 -45.0944 0
M  V30 5467 H  -22.0046 -12.2617 -46.0165 0
M  V30 5468 H  -20.5613 -11.0038 -48.9832 0
M  V30 5469 H  -21.6902 -12.0905 -48.2093 0
M  V30 5470 H  -21.8470 -14.4115 -44.6520 0
M  V30 5471 H  -22.8143 -14.0028 -42.0097 0
M  V30 5472 H  -22.8217 -16.3835 -43.8983 0
M  V30 5473 H  -24.0847 -15.1963 -43.7244 0
M  V30 5474 H  -24.5351 -15.9733 -41.4452 0
M  V30 5475 H  -23.2600 -17.1608 -41.4805 0
M  V30 5476 H  -24.5072 -18.1595 -43.5859 0
M  V30 5477 H  -25.7949 -17.0751 -43.1143 0
M  V30 5478 H  -24.8038 -18.7850 -40.9618 0
M  V30 5479 H  -28.4768 -19.4295 -42.5512 0
M  V30 5480 H  -27.3805 -18.3735 -43.4121 0
M  V30 5481 H  -27.8686 -20.4197 -40.6337 0
M  V30 5482 H  -26.3238 -20.1141 -39.8893 0
M  V30 5483 H  -20.3272 -16.2759 -43.3017 0
M  V30 5484 H  -19.8733 -17.6615 -40.9130 0
M  V30 5485 H  -17.7696 -18.4320 -42.0492 0
M  V30 5486 H  -19.1723 -18.5369 -43.0987 0
M  V30 5487 H  -18.0177 -17.2206 -43.3037 0
M  V30 5488 H  -18.3250 -14.6674 -42.1265 0
M  V30 5489 H  -16.3490 -14.3565 -40.1622 0
M  V30 5490 H  -16.7631 -11.8307 -40.6836 0
M  V30 5491 H  -17.9445 -12.3782 -41.8392 0
M  V30 5492 H  -16.0624 -13.7442 -42.9343 0
M  V30 5493 H  -14.9646 -13.0799 -41.7617 0
M  V30 5494 H  -15.4374 -10.7778 -42.5490 0
M  V30 5495 H  -16.6124 -11.3845 -43.6926 0
M  V30 5496 H  -14.8643 -12.6104 -44.9332 0
M  V30 5497 H  -13.6503 -12.1666 -43.7388 0
M  V30 5498 H  -13.9759 -9.8795 -44.3289 0
M  V30 5499 H  -13.5403 -10.7762 -45.6424 0
M  V30 5500 H  -15.1057 -10.2922 -45.4573 0
M  V30 5501 H  -19.8436 -13.3894 -40.0217 0
M  V30 5502 H  -19.5771 -12.0518 -37.5082 0
M  V30 5503 H  -22.0536 -12.1755 -37.4296 0
M  V30 5504 H  -22.0784 -13.2133 -38.8276 0
M  V30 5505 H  -21.2241 -11.4760 -40.2298 0
M  V30 5506 H  -20.8250 -10.3966 -38.9390 0
M  V30 5507 H  -22.9166 -9.4703 -39.6191 0
M  V30 5508 H  -23.4304 -10.5713 -38.3834 0
M  V30 5509 H  -24.4446 -11.9952 -39.7379 0
M  V30 5510 H  -24.9542 -11.9928 -43.1934 0
M  V30 5511 H  -25.4426 -12.6463 -41.6461 0
M  V30 5512 H  -23.2996 -10.3903 -43.2933 0
M  V30 5513 H  -22.5129 -9.8419 -41.8365 0
M  V30 5514 H  -20.5559 -15.3982 -38.3734 0
M  V30 5515 H  -21.2163 -16.2009 -35.7159 0
M  V30 5516 H  -20.4371 -17.7887 -38.1928 0
M  V30 5517 H  -21.5074 -19.7750 -37.1211 0
M  V30 5518 H  -20.0586 -19.3048 -36.2641 0
M  V30 5519 H  -21.6427 -18.8933 -35.6088 0
M  V30 5520 H  -22.8806 -18.2346 -38.3859 0
M  V30 5521 H  -23.1719 -17.2084 -36.9854 0
M  V30 5522 H  -22.5445 -16.5170 -38.4733 0
M  V30 5523 H  -18.1939 -16.4395 -37.6544 0
M  V30 5524 H  -16.5906 -17.7480 -35.7116 0
M  V30 5525 H  -16.0090 -16.0377 -38.1426 0
M  V30 5526 H  -16.8677 -18.4699 -38.2783 0
M  V30 5527 H  -15.3491 -18.9480 -37.5991 0
M  V30 5528 H  -13.5739 -16.6788 -38.0075 0
M  V30 5529 H  -14.0420 -15.5333 -36.7801 0
M  V30 5530 H  -13.8598 -17.2343 -36.3641 0
M  V30 5531 H  -15.6738 -18.9530 -40.2291 0
M  V30 5532 H  -15.3625 -17.2251 -40.1189 0
M  V30 5533 H  -14.1448 -18.3790 -39.5797 0
M  V30 5534 H  -17.2194 -14.2496 -36.3209 0
M  V30 5535 H  -15.3810 -13.2941 -34.3468 0
M  V30 5536 H  -17.7905 -11.9969 -35.6936 0
M  V30 5537 H  -16.1126 -12.3704 -37.0410 0
M  V30 5538 H  -16.8360 -9.7814 -34.9699 0
M  V30 5539 H  -17.4760 -10.6779 -33.6110 0
M  V30 5540 H  -15.7342 -10.6197 -33.8830 0
M  V30 5541 H  -18.8197 -14.3312 -34.1829 0
M  V30 5542 H  -19.2487 -13.3852 -31.4952 0
M  V30 5543 H  -20.7256 -15.4954 -33.1429 0
M  V30 5544 H  -20.8202 -13.4321 -33.9685 0
M  V30 5545 H  -22.6480 -15.1179 -31.5769 0
M  V30 5546 H  -21.3094 -15.8520 -30.7160 0
M  V30 5547 H  -21.6205 -14.1244 -30.5532 0
M  V30 5548 H  -18.1033 -16.5132 -32.8910 0
M  V30 5549 H  -17.8557 -17.8648 -30.3734 0
M  V30 5550 H  -16.1180 -19.2493 -31.8335 0
M  V30 5551 H  -16.6882 -18.2700 -33.1485 0
M  V30 5552 H  -18.3276 -20.1003 -30.2532 0
M  V30 5553 H  -18.1074 -19.5429 -34.5274 0
M  V30 5554 H  -20.0893 -21.7808 -30.5782 0
M  V30 5555 H  -19.8688 -21.2271 -34.8077 0
M  V30 5556 H  -20.8285 -22.3639 -32.8520 0
M  V30 5557 H  -15.6490 -15.7512 -32.1991 0
M  V30 5558 H  -13.3721 -16.2098 -30.5366 0
M  V30 5559 H  -14.0673 -14.0504 -32.5420 0
M  V30 5560 H  -13.1725 -15.5118 -32.8363 0
M  V30 5561 H  -11.4410 -14.5486 -31.0542 0
M  V30 5562 H  -12.3385 -13.0752 -31.2442 0
M  V30 5563 H  -11.1194 -14.5211 -33.6162 0
M  V30 5564 H  -10.2165 -13.3282 -32.7377 0
M  V30 5565 H  -12.4810 -13.0669 -34.6034 0
M  V30 5566 H  -12.6144 -9.5896 -34.6266 0
M  V30 5567 H  -13.1580 -11.0597 -35.3839 0
M  V30 5568 H  -11.2037 -9.6551 -32.7932 0
M  V30 5569 H  -10.6544 -11.1896 -32.1738 0
M  V30 5570 H  -15.6891 -13.4436 -30.7312 0
M  V30 5571 H  -14.3523 -12.1049 -28.5379 0
M  V30 5572 H  -16.9349 -11.1640 -29.8553 0
M  V30 5573 H  -15.5672 -11.6168 -31.5277 0
M  V30 5574 H  -16.0684 -8.9253 -29.3895 0
M  V30 5575 H  -15.9037 -9.8177 -27.8819 0
M  V30 5576 H  -14.5047 -9.5627 -28.8943 0
M  V30 5577 H  -17.4317 -13.8891 -28.9185 0
M  V30 5578 H  -17.7763 -14.1045 -26.0414 0
M  V30 5579 H  -18.8055 -14.7561 -27.3061 0
M  V30 5580 H  -18.8748 -11.7829 -28.4206 0
M  V30 5581 H  -21.3727 -11.1349 -27.0334 0
M  V30 5582 H  -19.6287 -9.7915 -25.8241 0
M  V30 5583 H  -20.6554 -7.7126 -26.3820 0
M  V30 5584 H  -18.5414 -7.8622 -26.9526 0
M  V30 5585 H  -18.0128 -9.3799 -27.6600 0
M  V30 5586 H  -19.1772 -8.3850 -28.5090 0
M  V30 5587 H  -22.5052 -9.3897 -28.2275 0
M  V30 5588 H  -22.7738 -10.3935 -30.9151 0
M  V30 5589 H  -24.9503 -9.4686 -30.7958 0
M  V30 5590 H  -24.5384 -8.3405 -29.5283 0
M  V30 5591 H  -24.2635 -9.2637 -27.0597 0
M  V30 5592 H  -25.3515 -11.2343 -25.8393 0
M  V30 5593 H  -25.9375 -11.9025 -31.1257 0
M  V30 5594 H  -26.7426 -13.6646 -26.5365 0
M  V30 5595 H  -27.2114 -14.0023 -30.7993 0
M  V30 5596 H  -27.5999 -14.9076 -28.5226 0
M  V30 5597 H  -20.4262 -8.5552 -30.6285 0
M  V30 5598 H  -21.0361 -5.9816 -31.6342 0
M  V30 5599 H  -18.6163 -5.8670 -32.3369 0
M  V30 5600 H  -18.4406 -7.5547 -31.9083 0
M  V30 5601 H  -20.4555 -9.0225 -33.3748 0
M  V30 5602 H  -20.4528 -7.8650 -36.0117 0
M  V30 5603 H  -20.6453 -10.2426 -36.6932 0
M  V30 5604 H  -19.3808 -10.0338 -35.4964 0
M  V30 5605 H  -20.9320 -10.7287 -35.0275 0
M  V30 5606 H  -22.9973 -8.7394 -33.7695 0
M  V30 5607 H  -25.1106 -8.6127 -35.8677 0
M  V30 5608 H  -26.4678 -9.8040 -34.0429 0
M  V30 5609 H  -25.0033 -9.9449 -33.1120 0
M  V30 5610 H  -26.5272 -10.6542 -36.4590 0
M  V30 5611 H  -23.5915 -11.8761 -33.5353 0
M  V30 5612 H  -26.0496 -12.6647 -37.7851 0
M  V30 5613 H  -23.1037 -13.9044 -34.8965 0
M  V30 5614 H  -24.8387 -14.6438 -37.9218 0
M  V30 5615 H  -23.6396 -6.3602 -34.1527 0
M  V30 5616 H  -25.5946 -5.2890 -32.4537 0
M  V30 5617 H  -23.2902 -3.9337 -33.9163 0
M  V30 5618 H  -23.1874 -4.7255 -32.3704 0
M  V30 5619 H  -24.8282 -2.2221 -32.9550 0
M  V30 5620 H  -24.6494 -2.3604 -30.1784 0
M  V30 5621 H  -26.0395 -2.8322 -31.1286 0
M  V30 5622 H  -24.8801 -4.0439 -30.6057 0
M  V30 5623 H  -23.0283 -0.9774 -32.5219 0
M  V30 5624 H  -22.6778 -1.8269 -31.0251 0
M  V30 5625 H  -22.0427 -2.4280 -32.5386 0
M  V30 5626 H  -27.3259 -4.0693 -32.7160 0
M  V30 5627 H  -27.8798 -2.5275 -35.1255 0
M  V30 5628 H  -28.6700 -4.8181 -35.7530 0
M  V30 5629 H  -29.9526 -3.6493 -35.6870 0
M  V30 5630 H  -31.4468 -6.6326 -34.2172 0
M  V30 5631 H  -30.9236 -6.0430 -35.7676 0
M  V30 5632 H  -30.5195 -1.9774 -34.6195 0
M  V30 5633 H  -30.4012 -0.0280 -32.5831 0
M  V30 5634 H  -32.7181 0.4279 -33.1056 0
M  V30 5635 H  -32.9647 -1.1723 -33.7770 0
M  V30 5636 H  -31.8325 -3.2984 -32.6345 0
M  V30 5637 H  -33.1317 -3.1093 -30.1067 0
M  V30 5638 H  -33.5205 -5.5103 -30.3782 0
M  V30 5639 H  -32.3844 -5.6078 -31.6996 0
M  V30 5640 H  -35.9051 -5.3262 -31.0582 0
M  V30 5641 H  -33.3530 -3.8378 -34.0680 0
M  V30 5642 H  -37.3156 -4.6914 -33.0538 0
M  V30 5643 H  -30.1088 -4.8099 -31.1322 0
M  V30 5644 H  -29.5134 -5.8573 -28.5728 0
M  V30 5645 H  -27.1375 -6.0222 -29.7426 0
M  V30 5646 H  -27.9783 -5.5415 -31.1795 0
M  V30 5647 H  -28.6732 -7.9038 -29.3882 0
M  V30 5648 H  -30.1413 -8.7784 -31.1053 0
M  V30 5649 H  -30.6690 -7.1493 -30.7601 0
M  V30 5650 H  -29.7248 -7.4915 -32.2156 0
M  V30 5651 H  -27.6964 -8.7584 -31.9888 0
M  V30 5652 H  -26.5044 -7.7419 -31.1978 0
M  V30 5653 H  -27.1504 -9.1678 -30.3781 0
M  V30 5654 H  -28.7100 -2.7008 -29.9929 0
M  V30 5655 H  -26.8726 -1.8635 -27.9580 0
M  V30 5656 H  -28.7270 -0.3336 -29.8236 0
M  V30 5657 H  -27.0441 -0.6831 -30.1049 0
M  V30 5658 H  -26.3697 0.8068 -28.2503 0
M  V30 5659 H  -28.0271 1.0725 -27.7831 0
M  V30 5660 H  -28.4809 2.0702 -30.0596 0
M  V30 5661 H  -26.7658 1.9844 -30.3813 0
M  V30 5662 H  -26.2897 3.4525 -28.4086 0
M  V30 5663 H  -27.9966 3.4861 -27.9998 0
M  V30 5664 H  -28.4358 4.5559 -30.0816 0
M  V30 5665 H  -27.3546 5.4231 -29.1893 0
M  V30 5666 H  -26.8367 4.5337 -30.4773 0
M  V30 5667 H  -30.4304 -1.4263 -28.3873 0
M  V30 5668 H  -30.8593 0.0091 -26.0147 0
M  V30 5669 H  -32.6851 -1.5289 -27.8851 0
M  V30 5670 H  -32.3266 0.1646 -27.9272 0
M  V30 5671 H  -34.0038 -1.2535 -25.7841 0
M  V30 5672 H  -34.5775 -0.2645 -27.1009 0
M  V30 5673 H  -34.7690 1.9051 -24.1358 0
M  V30 5674 H  -35.4351 0.3499 -24.5664 0
M  V30 5675 H  -31.1989 -3.5142 -26.6610 0
M  V30 5676 H  -32.2071 -4.1819 -24.0760 0
M  V30 5677 H  -31.5278 -6.5152 -24.7242 0
M  V30 5678 H  -30.7755 -5.8906 -26.1637 0
M  V30 5679 H  -33.0533 -5.0801 -26.9888 0
M  V30 5680 H  -33.6634 -5.4728 -25.4221 0
M  V30 5681 H  -33.7524 -7.7074 -25.7038 0
M  V30 5682 H  -32.4785 -7.8298 -26.8691 0
M  V30 5683 H  -35.3734 -6.9694 -27.1250 0
M  V30 5684 H  -33.4224 -8.3757 -30.3926 0
M  V30 5685 H  -32.5057 -8.2107 -28.9154 0
M  V30 5686 H  -35.6437 -7.8710 -30.4635 0
M  V30 5687 H  -36.4676 -7.3015 -29.0206 0
M  V30 5688 H  -28.8273 -3.9924 -25.3511 0
M  V30 5689 H  -27.6166 -4.9213 -22.9402 0
M  V30 5690 H  -28.5275 -1.6868 -24.1091 0
M  V30 5691 H  -27.3513 -0.1278 -22.0931 0
M  V30 5692 H  -29.5709 0.2736 -24.1145 0
M  V30 5693 H  -27.9317 0.8128 -24.2051 0
M  V30 5694 H  -30.1366 1.9424 -22.4322 0
M  V30 5695 H  -29.4348 2.6877 -23.8349 0
M  V30 5696 H  -30.7822 -1.2663 -22.3551 0
M  V30 5697 H  -31.5753 -0.1841 -19.8607 0
M  V30 5698 H  -32.7820 -2.3739 -21.5875 0
M  V30 5699 H  -34.9128 -2.0084 -20.2795 0
M  V30 5700 H  -33.6846 -2.8193 -19.3306 0
M  V30 5701 H  -33.9822 -1.1039 -19.0887 0
M  V30 5702 H  -34.4113 -0.6370 -22.2203 0
M  V30 5703 H  -33.6432 0.5251 -21.1464 0
M  V30 5704 H  -32.7912 -0.0580 -22.5637 0
M  V30 5705 H  -30.3071 -3.4640 -20.7069 0
M  V30 5706 H  -30.7416 -4.6696 -18.1850 0
M  V30 5707 H  -28.8997 -6.2490 -18.9466 0
M  V30 5708 H  -30.1765 -6.0363 -20.1213 0
M  V30 5709 H  -28.6408 -5.2084 -20.3453 0
M  V30 5710 H  -27.9509 -2.7798 -19.4411 0
M  V30 5711 H  -26.3650 -3.1195 -17.1105 0
M  V30 5712 H  -25.2285 -0.9904 -18.2622 0
M  V30 5713 H  -26.1919 -1.4157 -19.6177 0
M  V30 5714 H  -25.0902 -3.6246 -19.7466 0
M  V30 5715 H  -24.4603 -3.4671 -18.1305 0
M  V30 5716 H  -23.1481 -1.3786 -19.0612 0
M  V30 5717 H  -23.5017 -2.0578 -20.6258 0
M  V30 5718 H  -22.3068 -4.1403 -20.0857 0
M  V30 5719 H  -22.1521 -3.6772 -18.3995 0
M  V30 5720 H  -20.7692 -1.8641 -19.0309 0
M  V30 5721 H  -20.1476 -3.2933 -19.5633 0
M  V30 5722 H  -20.8833 -2.2687 -20.6243 0
M  V30 5723 H  -28.6661 -0.4840 -17.9825 0
M  V30 5724 H  -27.9889 1.1837 -15.7641 0
M  V30 5725 H  -30.2533 2.2138 -16.0614 0
M  V30 5726 H  -30.5967 0.4587 -18.2245 0
M  V30 5727 H  -29.9245 3.0803 -18.3880 0
M  V30 5728 H  -28.5057 3.1801 -17.3633 0
M  V30 5729 H  -28.6144 1.9226 -18.6046 0
M  V30 5730 H  -30.5597 -1.3648 -16.1326 0
M  V30 5731 H  -31.6468 -0.9763 -13.5332 0
M  V30 5732 H  -31.7895 -3.3093 -15.4767 0
M  V30 5733 H  -33.7664 -4.1507 -14.1535 0
M  V30 5734 H  -32.2565 -4.3551 -13.2994 0
M  V30 5735 H  -33.3436 -3.0395 -12.8557 0
M  V30 5736 H  -34.0674 -2.4939 -15.9318 0
M  V30 5737 H  -33.8865 -1.2161 -14.7348 0
M  V30 5738 H  -32.9229 -1.1921 -16.2031 0
M  V30 5739 H  -29.1582 -3.2871 -14.7599 0
M  V30 5740 H  -28.8025 -4.7081 -12.3563 0
M  V30 5741 H  -27.0107 -4.2800 -14.7722 0
M  V30 5742 H  -28.0586 -5.6207 -14.4163 0
M  V30 5743 H  -27.5307 -7.1016 -12.3403 0
M  V30 5744 H  -24.7145 -4.2988 -14.0282 0
M  V30 5745 H  -25.6843 -8.1942 -11.1281 0
M  V30 5746 H  -22.8940 -5.4259 -12.8112 0
M  V30 5747 H  -23.3778 -7.3596 -11.3639 0
M  V30 5748 H  -27.0206 -1.8128 -13.5696 0
M  V30 5749 H  -25.1579 -1.8247 -11.4602 0
M  V30 5750 H  -24.8150 -0.7318 -13.7049 0
M  V30 5751 H  -24.2613 0.1559 -12.3115 0
M  V30 5752 H  -27.0023 0.6274 -14.0571 0
M  V30 5753 H  -28.3400 -0.1701 -11.6891 0
M  V30 5754 H  -27.9547 1.3908 -9.3137 0
M  V30 5755 H  -30.4913 1.6140 -9.4587 0
M  V30 5756 H  -30.4571 0.5342 -10.8320 0
M  V30 5757 H  -29.0230 2.2020 -12.0404 0
M  V30 5758 H  -30.8358 3.7064 -12.5920 0
M  V30 5759 H  -31.5536 2.1503 -12.2159 0
M  V30 5760 H  -31.6134 3.4546 -11.0324 0
M  V30 5761 H  -29.4102 4.6278 -10.6605 0
M  V30 5762 H  -28.8742 3.5198 -9.4160 0
M  V30 5763 H  -27.8954 3.7643 -10.8558 0
M  V30 5764 H  -29.3142 -1.8834 -9.8690 0
M  V30 5765 H  -30.2580 -2.2184 -7.1685 0
M  V30 5766 H  -29.6589 -4.1988 -9.4026 0
M  V30 5767 H  -31.0303 -5.8776 -8.0869 0
M  V30 5768 H  -29.4725 -5.5633 -7.3619 0
M  V30 5769 H  -30.9234 -4.8232 -6.6822 0
M  V30 5770 H  -32.0674 -4.3228 -9.6489 0
M  V30 5771 H  -32.3056 -3.2453 -8.2619 0
M  V30 5772 H  -31.6056 -2.6326 -9.7503 0
M  V30 5773 H  -27.2258 -3.0927 -8.8914 0
M  V30 5774 H  -25.9940 -4.5299 -6.8018 0
M  V30 5775 H  -24.8292 -2.9054 -9.1038 0
M  V30 5776 H  -25.2955 -4.5776 -9.1877 0
M  V30 5777 H  -23.0478 -3.4853 -7.4332 0
M  V30 5778 H  -22.5919 -6.2092 -7.5886 0
M  V30 5779 H  -23.4206 -5.4190 -6.2632 0
M  V30 5780 H  -24.3437 -6.1718 -7.5475 0
M  V30 5781 H  -21.6851 -3.5726 -9.1909 0
M  V30 5782 H  -22.0892 -5.2496 -9.5162 0
M  V30 5783 H  -23.0312 -3.9697 -10.2431 0
M  V30 5784 H  -25.8810 -1.0250 -7.6324 0
M  V30 5785 H  -24.1232 -0.2422 -5.5605 0
M  V30 5786 H  -26.1715 1.2239 -7.2398 0
M  V30 5787 H  -25.2304 3.4172 -6.4249 0
M  V30 5788 H  -26.2066 2.6091 -5.2264 0
M  V30 5789 H  -24.4479 2.5648 -5.0983 0
M  V30 5790 H  -24.2364 2.1808 -8.3273 0
M  V30 5791 H  -23.1373 1.5125 -7.1260 0
M  V30 5792 H  -23.9642 0.4496 -8.2482 0
M  V30 5793 H  -27.7353 -0.5479 -5.5776 0
M  V30 5794 H  -28.0501 0.4455 -2.9115 0
M  V30 5795 H  -29.8759 -1.3998 -4.5145 0
M  V30 5796 H  -29.9006 0.3394 -4.5770 0
M  V30 5797 H  -30.5343 -2.5809 -2.3369 0
M  V30 5798 H  -30.8694 1.6909 -2.7815 0
M  V30 5799 H  -31.8375 -2.4503 -0.2458 0
M  V30 5800 H  -32.1685 1.7856 -0.6956 0
M  V30 5801 H  -32.6253 -0.2726 0.5815 0
M  V30 5802 H  -27.7638 -2.9083 -4.2076 0
M  V30 5803 H  -28.1973 -4.2778 -1.8429 0
M  V30 5804 H  -27.1440 -6.2025 -3.0335 0
M  V30 5805 H  -28.2354 -5.3153 -4.0892 0
M  V30 5806 H  -26.4974 -5.1036 -4.2515 0
M  V30 5807 H  -25.0003 -3.2670 -3.1957 0
M  V30 5808 H  -23.4817 -4.3474 -1.0109 0
M  V30 5809 H  -21.6439 -2.9224 -2.0531 0
M  V30 5810 H  -22.8293 -2.2466 -3.1363 0
M  V30 5811 H  -23.2211 -4.4751 -4.1229 0
M  V30 5812 H  -21.4732 -4.2507 -5.5748 0
M  V30 5813 H  -21.0976 -2.8225 -4.6335 0
M  V30 5814 H  -20.2454 -4.3218 -4.3194 0
M  V30 5815 H  -21.1590 -6.1729 -3.3495 0
M  V30 5816 H  -21.6557 -5.4842 -1.8183 0
M  V30 5817 H  -22.8317 -6.3005 -2.8430 0
M  V30 5818 H  -25.2780 -1.3696 -1.3259 0
M  V30 5819 H  -23.6838 0.0175 0.6812 0
M  V30 5820 H  -25.5637 1.7860 0.3130 0
M  V30 5821 H  -26.0335 0.7957 -1.0460 0
M  V30 5822 H  -23.8500 0.8529 -2.3219 0
M  V30 5823 H  -26.8168 -1.6730 0.4888 0
M  V30 5824 H  -27.4521 -0.8567 3.2867 0
M  V30 5825 H  -29.7244 -1.7492 2.6204 0
M  V30 5826 H  -29.1421 -1.8794 0.9866 0
M  V30 5827 H  -28.6336 0.4694 -0.2681 0
M  V30 5828 H  -29.4398 2.8490 0.1186 0
M  V30 5829 H  -30.2631 -0.0232 4.5680 0
M  V30 5830 H  -30.6105 4.3887 2.2797 0
M  V30 5831 H  -31.1873 1.9353 5.7679 0
M  V30 5832 H  -31.3468 4.1366 4.6505 0
M  V30 5833 H  -26.2040 -3.6553 1.5664 0
M  V30 5834 H  -27.1730 -5.5651 3.4030 0
M  V30 5835 H  -24.6837 -5.6754 1.6595 0
M  V30 5836 H  -26.2671 -6.2195 1.2437 0
M  V30 5837 H  -24.5533 -7.4323 3.4250 0
M  V30 5838 H  -26.5830 -9.2872 2.8543 0
M  V30 5839 H  -26.5087 -8.2483 4.2562 0
M  V30 5840 H  -27.4437 -7.7654 2.8547 0
M  V30 5841 H  -23.6186 -8.7548 1.8832 0
M  V30 5842 H  -25.1620 -9.2065 1.1782 0
M  V30 5843 H  -24.3395 -7.7652 0.6291 0
M  V30 5844 H  -23.1876 -4.8893 5.9928 0
M  V30 5845 H  -21.4780 -3.2545 5.8155 0
M  V30 5846 H  -22.6222 -1.9716 5.4474 0
M  V30 5847 H  -21.7456 -4.2011 3.6047 0
M  V30 5848 H  -21.7299 -2.4799 3.2468 0
M  V30 5849 H  -24.1798 -2.4097 3.2637 0
M  V30 5850 H  -23.7872 -3.8869 2.3856 0
M  V30 5851 H  -25.5750 -2.2207 5.6462 0
M  V30 5852 H  -25.6833 -1.6366 8.4745 0
M  V30 5853 H  -27.6258 -0.9738 6.2109 0
M  V30 5854 H  -26.2460 -0.0228 6.6151 0
M  V30 5855 H  -28.6203 -0.5384 8.4486 0
M  V30 5856 H  -27.3014 0.0547 10.1656 0
M  V30 5857 H  -25.9628 0.5250 9.1332 0
M  V30 5858 H  -27.2286 1.6721 9.5058 0
M  V30 5859 H  -28.6084 2.1991 7.9192 0
M  V30 5860 H  -28.1341 1.5013 6.3854 0
M  V30 5861 H  -29.6178 0.9898 7.1533 0
M  V30 5862 H  -27.8355 -3.4299 6.1990 0
M  V30 5863 H  -29.7174 -4.2338 8.1867 0
M  V30 5864 H  -30.3143 -5.9179 6.3365 0
M  V30 5865 H  -29.0884 -5.1823 5.3569 0
M  V30 5866 H  -29.8333 -3.1427 4.0374 0
M  V30 5867 H  -32.4793 -3.9666 7.1967 0
M  V30 5868 H  -31.8822 -1.6574 3.7680 0
M  V30 5869 H  -26.7125 -5.7528 7.0167 0
M  V30 5870 H  -27.1713 -8.2409 8.3406 0
M  V30 5871 H  -24.5506 -7.0748 7.3492 0
M  V30 5872 H  -25.7225 -7.8644 6.3243 0
M  V30 5873 H  -24.3305 -9.2279 8.6107 0
M  V30 5874 H  -25.3948 -11.2394 6.9759 0
M  V30 5875 H  -26.0669 -10.6865 8.4939 0
M  V30 5876 H  -26.6723 -10.0405 6.9731 0
M  V30 5877 H  -22.6399 -9.7662 7.2281 0
M  V30 5878 H  -23.7111 -10.2617 5.9263 0
M  V30 5879 H  -23.2538 -8.5821 6.0906 0
M  V30 5880 H  -25.6683 -5.1391 9.3238 0
M  V30 5881 H  -24.5267 -6.0009 11.7736 0
M  V30 5882 H  -24.4347 -3.6604 12.3270 0
M  V30 5883 H  -24.1921 -3.7245 10.5933 0
M  V30 5884 H  -25.7457 -3.2385 11.2407 0
M  V30 5885 H  -27.8253 -4.9900 10.8958 0
M  V30 5886 H  -28.9088 -4.7682 13.5119 0
M  V30 5887 H  -31.1055 -4.8385 12.2340 0
M  V30 5888 H  -30.2242 -5.2087 10.7909 0
M  V30 5889 H  -30.1415 -3.0252 10.4645 0
M  V30 5890 H  -28.8399 -2.9136 11.6075 0
M  V30 5891 H  -31.0254 -2.7608 13.3402 0
M  V30 5892 H  -31.7677 -2.2656 11.8323 0
M  V30 5893 H  -29.3609 -0.8182 12.1570 0
M  V30 5894 H  -30.8770 2.1140 13.2579 0
M  V30 5895 H  -29.4033 1.3822 12.6666 0
M  V30 5896 H  -32.7477 0.8602 13.6284 0
M  V30 5897 H  -32.7447 -0.8684 13.3329 0
M  V30 5898 H  -29.2044 -7.4346 11.0630 0
M  V30 5899 H  -30.7340 -9.0657 12.8494 0
M  V30 5900 H  -30.5076 -10.8410 11.2339 0
M  V30 5901 H  -28.1289 -10.5211 10.4835 0
M  V30 5902 H  -28.6286 -9.0805 9.6506 0
M  V30 5903 H  -31.7273 -9.8095 9.4177 0
M  V30 5904 H  -32.1939 -9.0255 10.9115 0
M  V30 5905 H  -31.0937 -8.2124 9.8014 0
M  V30 5906 H  -28.4269 -11.4653 8.4054 0
M  V30 5907 H  -30.0860 -11.6425 8.9550 0
M  V30 5908 H  -29.6400 -10.2896 7.9148 0
M  V30 5909 H  -27.1990 -8.8170 12.2927 0
M  V30 5910 H  -26.5906 -11.2090 13.7968 0
M  V30 5911 H  -24.2715 -10.1004 13.9286 0
M  V30 5912 H  -24.9168 -8.7851 12.9928 0
M  V30 5913 H  -25.3600 -10.3462 11.1079 0
M  V30 5914 H  -23.2301 -10.0725 10.3586 0
M  V30 5915 H  -22.8530 -9.4155 11.9377 0
M  V30 5916 H  -22.5403 -11.1043 11.5985 0
M  V30 5917 H  -24.1131 -12.7367 11.4861 0
M  V30 5918 H  -24.7678 -12.4857 13.0924 0
M  V30 5919 H  -25.8344 -12.4835 11.6913 0
M  V30 5920 H  -27.0883 -7.7733 14.6852 0
M  V30 5921 H  -26.2278 -8.1421 17.4090 0
M  V30 5922 H  -29.4243 -8.4137 15.7670 0
M  V30 5923 H  -30.8776 -8.6415 18.2196 0
M  V30 5924 H  -31.6840 -9.4489 15.3814 0
M  V30 5925 H  -31.8032 -7.8654 16.0794 0
M  V30 5926 H  -33.2537 -8.9242 17.9502 0
M  V30 5927 H  -35.3204 -8.7847 16.3597 0
M  V30 5928 H  -34.3191 -7.3712 16.5844 0
M  V30 5929 H  -34.1422 -8.3436 15.1250 0
M  V30 5930 H  -34.5912 -10.9229 16.4528 0
M  V30 5931 H  -32.8968 -11.3147 16.2706 0
M  V30 5932 H  -33.6012 -11.1579 17.8722 0
M  V30 5933 H  -29.6382 -11.1166 15.9009 0
M  V30 5934 H  -30.8916 -13.2813 17.2785 0
M  V30 5935 H  -29.5382 -14.7306 15.7247 0
M  V30 5936 H  -28.6536 -12.3487 14.5322 0
M  V30 5937 H  -30.6040 -13.9402 13.6095 0
M  V30 5938 H  -31.7329 -13.9441 14.9561 0
M  V30 5939 H  -31.0566 -12.4272 14.3934 0
M  V30 5940 H  -27.4626 -12.0607 17.3947 0
M  V30 5941 H  -27.0785 -13.7950 19.7659 0
M  V30 5942 H  -26.0742 -15.1776 18.1333 0
M  V30 5943 H  -24.8700 -14.4291 19.1084 0
M  V30 5944 H  -24.7395 -12.6706 17.0573 0
M  V30 5945 H  -23.0322 -14.5711 16.0521 0
M  V30 5946 H  -22.6879 -13.5375 17.4200 0
M  V30 5947 H  -23.2636 -15.1768 17.6809 0
M  V30 5948 H  -25.8189 -13.2254 15.1936 0
M  V30 5949 H  -24.9922 -14.7674 15.0960 0
M  V30 5950 H  -26.5049 -14.6506 15.9596 0
M  V30 5951 H  -27.5467 -11.9950 20.9715 0
M  V30 5952 H  -25.0775 -10.7089 21.7554 0
M  V30 5953 H  -27.4938 -9.0142 20.9927 0
M  V30 5954 H  -25.9691 -9.0177 20.1368 0
M  V30 5955 H  -23.9304 -8.0073 21.1966 0
M  V30 5956 H  -27.8201 -7.8105 23.0620 0
M  V30 5957 H  -23.1121 -6.2361 22.7313 0
M  V30 5958 H  -27.0034 -6.0406 24.5850 0
M  V30 5959 H  -25.1768 -4.8600 25.3069 0
M  V30 5960 H  -24.9799 -10.9374 23.8954 0
M  V30 5961 H  -27.3387 -10.5263 25.5601 0
M  V30 5962 H  -26.6277 -12.5631 26.9872 0
M  V30 5963 H  -25.6254 -13.0812 25.6578 0
M  V30 5964 H  -28.3907 -14.9091 24.3938 0
M  V30 5965 H  -26.6809 -14.8295 24.7296 0
M  V30 5966 H  -26.8123 -9.6528 27.5349 0
M  V30 5967 H  -24.3999 -8.1203 27.5821 0
M  V30 5968 H  -26.3692 -8.3327 29.8924 0
M  V30 5969 H  -26.9718 -7.7236 28.3983 0
M  V30 5970 H  -24.5634 -6.4974 29.8334 0
M  V30 5971 H  -26.2114 -5.9618 30.0379 0
M  V30 5972 H  -24.5817 -3.7356 27.5059 0
M  V30 5973 H  -24.2068 -4.2037 29.1408 0
M  V30 5974 H  -25.2151 -11.1837 28.9434 0
M  V30 5975 H  -24.0307 -11.1434 31.4781 0
M  V30 5976 H  -24.2708 -13.5913 31.3877 0
M  V30 5977 H  -24.3453 -13.5748 29.6435 0
M  V30 5978 H  -27.8322 -13.9066 30.0067 0
M  V30 5979 H  -26.3343 -14.6490 29.5093 0
M  V30 5980 H  -22.6119 -12.1793 28.3684 0
M  V30 5981 H  -20.3491 -13.3933 29.5645 0
M  V30 5982 H  -19.6145 -13.8106 27.2309 0
M  V30 5983 H  -20.8101 -12.6761 26.6325 0
M  V30 5984 H  -17.6689 -9.7464 29.5634 0
M  V30 5985 H  -16.6395 -10.8375 31.3405 0
M  V30 5986 H  -15.2822 -10.8817 30.2230 0
M  V30 5987 H  -16.1160 -13.2144 31.2484 0
M  V30 5988 H  -15.8513 -13.1217 29.5088 0
M  V30 5989 H  -18.0900 -13.8510 29.4649 0
M  V30 5990 H  -18.4917 -13.0053 30.9688 0
M  V30 5991 H  -17.2232 -12.4094 27.2837 0
M  V30 5992 H  -15.2551 -11.1688 25.6427 0
M  V30 5993 H  -18.3128 -10.0455 26.3332 0
M  V30 5994 H  -19.3830 -9.1306 23.9500 0
M  V30 5995 H  -16.5467 -7.7602 25.7743 0
M  V30 5996 H  -16.6282 -5.3119 24.2586 0
M  V30 5997 H  -14.2792 -5.0737 25.4019 0
M  V30 5998 H  -14.7575 -6.4745 26.3274 0
M  V30 5999 H  -15.3898 -8.3794 23.3532 0
M  V30 6000 H  -13.7612 -7.1968 21.1643 0
M  V30 6001 H  -16.7964 -8.9324 21.8530 0
M  V30 6002 H  -17.6043 -9.3517 19.1606 0
M  V30 6003 H  -19.0560 -9.4649 21.8449 0
M  V30 6004 H  -18.1633 -10.7462 21.1072 0
M  V30 6005 H  -20.3379 -11.3277 20.8258 0
M  V30 6006 H  -21.7185 -9.2658 19.3681 0
M  V30 6007 H  -22.1129 -10.0142 20.8992 0
M  V30 6008 H  -21.0899 -8.5952 20.8668 0
M  V30 6009 H  -20.6663 -11.6188 18.4817 0
M  V30 6010 H  -19.7457 -10.1678 18.0856 0
M  V30 6011 H  -18.9309 -11.5700 18.7562 0
M  V30 6012 H  -18.6607 -6.9738 21.6394 0
M  V30 6013 H  -20.5280 -5.5763 20.0328 0
M  V30 6014 H  -19.1044 -4.7720 22.6278 0
M  V30 6015 H  -20.5335 -5.7579 22.5259 0
M  V30 6016 H  -21.2126 -3.6860 23.2158 0
M  V30 6017 H  -20.3666 -1.6621 22.8030 0
M  V30 6018 H  -19.0652 -2.4800 21.9674 0
M  V30 6019 H  -20.4223 -1.8406 21.0580 0
M  V30 6020 H  -23.0561 -3.4556 21.9458 0
M  V30 6021 H  -22.1705 -3.1333 20.4619 0
M  V30 6022 H  -22.4075 -4.7814 21.0059 0
M  V30 6023 H  -17.0454 -5.1256 20.6793 0
M  V30 6024 H  -16.6984 -2.6115 19.4092 0
M  V30 6025 H  -14.8210 -4.9839 19.8482 0
M  V30 6026 H  -14.9836 -3.5503 20.8457 0
M  V30 6027 H  -13.9541 -3.7122 18.2193 0
M  V30 6028 H  -16.7170 -5.9743 18.1052 0
M  V30 6029 H  -16.1695 -5.1901 15.4122 0
M  V30 6030 H  -17.2280 -7.7693 16.6383 0
M  V30 6031 H  -15.5917 -7.3771 16.2101 0
M  V30 6032 H  -15.0259 -6.8786 13.7333 0
M  V30 6033 H  -18.6811 -8.8045 14.9843 0
M  V30 6034 H  -15.3935 -7.7130 11.4459 0
M  V30 6035 H  -19.0160 -9.6169 12.6858 0
M  V30 6036 H  -17.3797 -9.0750 10.9253 0
M  V30 6037 H  -19.2387 -5.7453 17.1879 0
M  V30 6038 H  -20.9153 -5.5363 14.8843 0
M  V30 6039 H  -22.5852 -4.9838 16.9899 0
M  V30 6040 H  -21.2895 -5.7280 17.8611 0
M  V30 6041 H  -22.7944 -6.9080 15.4912 0
M  V30 6042 H  -21.5181 -8.7882 15.4758 0
M  V30 6043 H  -20.2865 -7.7969 16.2286 0
M  V30 6044 H  -21.3109 -8.8147 17.2161 0
M  V30 6045 H  -23.9066 -8.3936 17.1357 0
M  V30 6046 H  -23.0991 -7.5480 18.4546 0
M  V30 6047 H  -24.2533 -6.6931 17.4428 0
M  V30 6048 H  -19.9643 -3.0961 17.3767 0
M  V30 6049 H  -21.6538 -1.0451 16.3595 0
M  V30 6050 H  -19.1947 -0.9102 18.1680 0
M  V30 6051 H  -20.8506 -1.1292 18.6303 0
M  V30 6052 H  -21.1892 1.1939 17.2936 0
M  V30 6053 H  -20.3761 2.1705 19.8001 0
M  V30 6054 H  -21.9747 1.6021 19.3544 0
M  V30 6055 H  -20.8323 0.5164 20.1303 0
M  V30 6056 H  -19.2412 2.7476 17.8868 0
M  V30 6057 H  -18.2737 1.3119 18.1965 0
M  V30 6058 H  -18.9019 1.6380 16.5836 0
M  V30 6059 H  -18.2132 -1.8685 15.6841 0
M  V30 6060 H  -17.6467 0.3340 14.0099 0
M  V30 6061 H  -16.5039 -2.4525 14.3018 0
M  V30 6062 H  -14.5639 -1.8288 12.8322 0
M  V30 6063 H  -16.0359 -2.1121 11.9362 0
M  V30 6064 H  -15.4903 -0.4592 12.2330 0
M  V30 6065 H  -14.5556 -1.2608 15.2074 0
M  V30 6066 H  -15.2817 0.2951 14.8082 0
M  V30 6067 H  -16.0118 -0.7341 16.0327 0
M  V30 6068 H  -18.8436 -2.9626 13.1727 0
M  V30 6069 H  -19.0149 -2.5049 10.3831 0
M  V30 6070 H  -20.2123 -4.6203 12.2277 0
M  V30 6071 H  -18.6795 -4.6412 11.4283 0
M  V30 6072 H  -20.1204 -4.4265 9.2004 0
M  V30 6073 H  -20.1756 -7.0045 9.1485 0
M  V30 6074 H  -18.6208 -6.2441 9.4421 0
M  V30 6075 H  -19.5200 -6.9460 10.7830 0
M  V30 6076 H  -22.1281 -6.2706 10.2096 0
M  V30 6077 H  -22.2174 -4.7946 11.1466 0
M  V30 6078 H  -22.3404 -4.7338 9.3941 0
M  V30 6079 H  -21.3590 -1.8858 12.9888 0
M  V30 6080 H  -23.6149 -1.3825 11.3243 0
M  V30 6081 H  -22.9625 -0.4484 14.1570 0
M  V30 6082 H  -23.8177 -1.8903 13.7504 0
M  V30 6083 H  -21.1972 0.8375 12.8350 0
M  V30 6084 H  -22.2507 3.2443 11.7959 0
M  V30 6085 H  -19.6658 3.8867 12.0762 0
M  V30 6086 H  -19.5800 2.3753 12.9250 0
M  V30 6087 H  -21.8116 2.2139 14.7184 0
M  V30 6088 H  -19.8318 5.7888 13.3122 0
M  V30 6089 H  -22.4444 3.3837 16.7935 0
M  V30 6090 H  -20.4787 6.9605 15.3883 0
M  V30 6091 H  -22.3259 5.3236 17.9953 0
M  V30 6092 H  -19.8636 0.9437 10.3858 0
M  V30 6093 H  -19.2551 2.4805 8.0680 0
M  V30 6094 H  -19.2643 -0.5134 8.5504 0
M  V30 6095 H  -17.5670 1.0566 9.7451 0
M  V30 6096 H  -16.8706 1.3152 8.1841 0
M  V30 6097 H  -17.8378 -0.7261 6.4580 0
M  V30 6098 H  -19.4979 -0.3332 6.1186 0
M  V30 6099 H  -18.2664 0.9300 6.0403 0
M  V30 6100 H  -16.0614 -0.6675 9.8718 0
M  V30 6101 H  -17.2503 -1.5855 8.9582 0
M  V30 6102 H  -15.9050 -0.8091 8.1287 0
M  V30 6103 H  -21.8300 0.0344 8.7271 0
M  V30 6104 H  -23.8664 -0.3090 7.8411 0
M  V30 6105 H  -23.1469 -0.0292 6.2659 0
M  V30 6106 H  -23.5289 2.4101 8.9281 0
M  V30 6107 H  -25.7001 3.8258 7.7315 0
M  V30 6108 H  -23.6161 4.5434 9.8041 0
M  V30 6109 H  -25.5251 2.9980 10.3369 0
M  V30 6110 H  -26.6380 4.2998 10.0105 0
M  V30 6111 H  -24.7930 6.6956 10.2970 0
M  V30 6112 H  -23.9957 6.7409 8.7537 0
M  V30 6113 H  -25.7410 6.5067 8.8321 0
M  V30 6114 H  -25.9252 3.8228 12.4876 0
M  V30 6115 H  -24.4210 4.6423 12.0882 0
M  V30 6116 H  -25.9560 5.5015 11.9708 0
M  V30 6117 H  -22.1412 4.2627 7.5309 0
M  V30 6118 H  -22.1886 6.4870 5.7888 0
M  V30 6119 H  -19.7397 5.7904 5.3869 0
M  V30 6120 H  -20.0130 4.4208 6.4132 0
M  V30 6121 H  -19.2721 6.3325 9.2976 0
M  V30 6122 H  -19.3035 4.7781 8.5057 0
M  V30 6123 H  -22.2776 2.9588 5.1769 0
M  V30 6124 H  -21.9280 3.1009 2.3370 0
M  V30 6125 H  -22.8631 0.7941 2.3854 0
M  V30 6126 H  -23.2365 0.9550 4.0672 0
M  V30 6127 H  -21.1930 -0.3848 3.4837 0
M  V30 6128 H  -20.9178 0.8236 4.6599 0
M  V30 6129 H  -19.4015 0.8568 0.3155 0
M  V30 6130 H  -20.3047 -0.4543 1.0897 0
M  V30 6131 H  -21.1172 1.0650 0.6795 0
M  V30 6132 H  -24.8915 2.8983 4.4003 0
M  V30 6133 H  -26.7707 2.9893 2.2834 0
M  V30 6134 H  -28.2617 3.7999 4.3150 0
M  V30 6135 H  -27.5580 2.1846 4.3263 0
M  V30 6136 H  -26.8274 3.4766 5.2729 0
M  V30 6137 H  -25.1672 5.6326 4.0833 0
M  V30 6138 H  -26.6509 7.7276 2.7869 0
M  V30 6139 H  -25.4710 7.8486 5.0615 0
M  V30 6140 H  -25.3063 9.2126 4.0015 0
M  V30 6141 H  -23.3919 7.1763 4.4198 0
M  V30 6142 H  -23.6451 5.9217 1.9857 0
M  V30 6143 H  -22.8877 7.5973 -0.1939 0
M  V30 6144 H  -21.7403 5.2486 -0.9003 0
M  V30 6145 H  -22.1494 4.8264 0.7243 0
M  V30 6146 H  -20.9080 6.8999 1.4946 0
M  V30 6147 H  -19.1941 5.5071 1.8941 0
M  V30 6148 H  -19.8972 4.3443 0.7908 0
M  V30 6149 H  -18.6878 5.4699 0.2138 0
M  V30 6150 H  -19.1545 7.3871 -0.7161 0
M  V30 6151 H  -20.7797 7.4687 -1.3578 0
M  V30 6152 H  -20.3146 8.4776 0.0025 0
M  V30 6153 H  -25.2630 4.9134 -0.0195 0
M  V30 6154 H  -25.5914 4.5416 -2.7738 0
M  V30 6155 H  -27.4491 4.1795 -0.3954 0
M  V30 6156 H  -26.5651 2.9722 -1.2757 0
M  V30 6157 H  -28.9509 2.8754 -4.0405 0
M  V30 6158 H  -27.2287 2.9723 -3.8103 0
M  V30 6159 H  -27.0873 6.9047 -0.5335 0
M  V30 6160 H  -28.8879 8.0260 -2.3763 0
M  V30 6161 H  -29.1635 8.0384 0.0826 0
M  V30 6162 H  -29.4537 9.5700 -0.7043 0
M  V30 6163 H  -27.0266 8.9041 0.5888 0
M  V30 6164 H  -25.4861 8.4343 -2.3278 0
M  V30 6165 H  -25.7213 10.8222 -4.0851 0
M  V30 6166 H  -24.5625 11.2934 -1.8655 0
M  V30 6167 H  -23.6471 11.6658 -3.3062 0
M  V30 6168 H  -22.1180 9.6797 -3.3766 0
M  V30 6169 H  -24.8421 7.4875 -4.0044 0
M  V30 6170 H  -22.8771 7.7467 -6.1825 0
M  V30 6171 H  -22.5078 5.3240 -5.7463 0
M  V30 6172 H  -22.3246 6.2849 -4.2926 0
M  V30 6173 H  -23.7943 5.3367 -4.5469 0
M  V30 6174 H  -26.3193 7.0835 -5.9630 0
M  V30 6175 H  -26.4956 5.3707 -8.1782 0
M  V30 6176 H  -28.9524 6.3218 -8.2642 0
M  V30 6177 H  -28.5344 7.1972 -6.8196 0
M  V30 6178 H  -29.8750 4.3402 -5.1687 0
M  V30 6179 H  -29.9536 6.0590 -5.4462 0
M  V30 6180 H  -27.1325 9.2994 -10.9632 0
M  V30 6181 H  -26.8306 11.5708 -10.4329 0
M  V30 6182 H  -25.3509 11.2776 -9.5313 0
M  V30 6183 H  -28.1778 10.7893 -8.6215 0
M  V30 6184 H  -26.8933 11.5962 -7.7196 0
M  V30 6185 H  -25.7258 9.5014 -7.3947 0
M  V30 6186 H  -27.4218 9.0600 -7.1717 0
M  V30 6187 H  -24.0247 8.8824 -9.2272 0
M  V30 6188 H  -22.3001 9.3761 -11.4554 0
M  V30 6189 H  -21.8560 7.9284 -8.8117 0
M  V30 6190 H  -22.4650 10.4011 -8.7012 0
M  V30 6191 H  -21.0150 10.7445 -9.5942 0
M  V30 6192 H  -19.3837 8.2893 -9.1850 0
M  V30 6193 H  -20.0678 7.1494 -10.3061 0
M  V30 6194 H  -19.7317 8.7988 -10.8325 0
M  V30 6195 H  -21.0808 10.8234 -6.9118 0
M  V30 6196 H  -20.7578 9.1017 -7.0477 0
M  V30 6197 H  -19.6309 10.2691 -7.7383 0
M  V30 6198 H  -23.7103 6.4019 -10.0195 0
M  V30 6199 H  -22.3075 4.4803 -11.5042 0
M  V30 6200 H  -24.1601 2.9734 -10.7715 0
M  V30 6201 H  -23.6096 4.0127 -9.4608 0
M  V30 6202 H  -25.1208 4.3709 -10.2906 0
M  V30 6203 H  -25.1913 6.3770 -12.3931 0
M  V30 6204 H  -25.8210 4.8583 -14.7518 0
M  V30 6205 H  -27.1695 6.9920 -15.2847 0
M  V30 6206 H  -26.5563 7.6597 -13.8004 0
M  V30 6207 H  -27.6082 5.7528 -12.5536 0
M  V30 6208 H  -29.5461 6.9221 -12.3145 0
M  V30 6209 H  -28.7890 8.0634 -13.4135 0
M  V30 6210 H  -29.9253 6.8878 -14.0367 0
M  V30 6211 H  -29.5443 4.6982 -14.3245 0
M  V30 6212 H  -28.0614 4.6480 -15.2462 0
M  V30 6213 H  -28.1468 3.8634 -13.6768 0
M  V30 6214 H  -23.6411 7.6785 -14.1659 0
M  V30 6215 H  -23.2469 8.2525 -16.9380 0
M  V30 6216 H  -21.3900 8.7785 -14.5701 0
M  V30 6217 H  -22.6859 9.8162 -15.0859 0
M  V30 6218 H  -19.3632 8.4301 -16.1221 0
M  V30 6219 H  -22.4356 11.3430 -16.9182 0
M  V30 6220 H  -17.8903 9.5250 -17.7841 0
M  V30 6221 H  -20.9527 12.4633 -18.5580 0
M  V30 6222 H  -18.9088 12.4373 -19.6140 0
M  V30 6223 H  -21.4685 6.1258 -14.6457 0
M  V30 6224 H  -19.3669 5.5183 -16.4570 0
M  V30 6225 H  -18.8410 3.7394 -14.6883 0
M  V30 6226 H  -20.3258 4.1739 -13.8894 0
M  V30 6227 H  -19.4673 6.4833 -13.5497 0
M  V30 6228 H  -18.5991 5.8476 -11.5707 0
M  V30 6229 H  -18.7997 4.1927 -12.1080 0
M  V30 6230 H  -17.2501 4.9849 -12.2897 0
M  V30 6231 H  -16.6792 6.3573 -13.9318 0
M  V30 6232 H  -17.3231 5.6508 -15.3977 0
M  V30 6233 H  -17.8228 7.2603 -14.8952 0
M  V30 6234 H  -22.4236 3.7950 -15.7781 0
M  V30 6235 H  -21.4764 1.4877 -17.4156 0
M  V30 6236 H  -23.6499 1.6210 -15.2910 0
M  V30 6237 H  -23.2312 -0.9614 -15.2915 0
M  V30 6238 H  -24.2177 -0.2740 -16.5486 0
M  V30 6239 H  -22.5337 -0.7176 -16.8797 0
M  V30 6240 H  -22.0531 0.3943 -13.8220 0
M  V30 6241 H  -20.7844 0.6127 -15.0258 0
M  V30 6242 H  -21.4857 2.0007 -14.1962 0
M  V30 6243 H  -23.5997 4.1693 -17.6969 0
M  V30 6244 H  -25.0070 2.8103 -19.9543 0
M  V30 6245 H  -26.1427 4.5115 -17.7609 0
M  V30 6246 H  -26.7614 3.1763 -18.6593 0
M  V30 6247 H  -27.4751 4.4482 -20.1801 0
M  V30 6248 H  -24.5979 3.5205 -21.8425 0
M  V30 6249 H  -22.8086 5.7107 -22.3889 0
M  V30 6250 H  -26.3642 5.2561 -22.4628 0
M  V30 6251 H  -26.9292 7.6821 -23.8594 0
M  V30 6252 H  -28.6871 5.9347 -22.1060 0
M  V30 6253 H  -28.4612 5.7746 -23.8274 0
M  V30 6254 H  -29.3562 8.1418 -24.0463 0
M  V30 6255 H  -29.8406 8.1172 -22.3712 0
M  V30 6256 H  -31.1390 5.8634 -23.1005 0
M  V30 6257 H  -30.7699 6.4303 -24.7083 0
M  V30 6258 H  -32.1622 8.2877 -22.9036 0
M  V30 6259 H  -34.8815 8.6332 -25.0234 0
M  V30 6260 H  -34.0914 9.2035 -23.5797 0
M  V30 6261 H  -33.9577 6.9921 -26.3094 0
M  V30 6262 H  -32.4479 6.2576 -25.8458 0
M  V30 6263 H  -26.7876 6.9082 -20.3196 0
M  V30 6264 H  -27.4715 9.5897 -19.5359 0
M  V30 6265 H  -26.3493 8.6747 -17.2925 0
M  V30 6266 H  -26.4976 7.1392 -18.0861 0
M  V30 6267 H  -28.7481 6.0988 -18.3599 0
M  V30 6268 H  -28.3584 10.1335 -16.8730 0
M  V30 6269 H  -31.1022 6.1005 -17.7152 0
M  V30 6270 H  -30.7453 10.1082 -16.2748 0
M  V30 6271 H  -32.1063 8.0889 -16.6658 0
M  V30 6272 H  -24.3293 8.0000 -20.2014 0
M  V30 6273 H  -22.7496 10.1419 -19.2363 0
M  V30 6274 H  -24.1999 9.5531 -22.4396 0
M  V30 6275 H  -23.0163 11.8628 -23.6492 0
M  V30 6276 H  -24.7055 11.3297 -25.4978 0
M  V30 6277 H  -25.2956 10.0121 -24.5129 0
M  V30 6278 H  -23.0145 8.3766 -26.8257 0
M  V30 6279 H  -24.6413 8.9938 -26.7088 0
M  V30 6280 H  -26.1365 11.2099 -21.9964 0
M  V30 6281 H  -27.4021 13.6795 -22.6718 0
M  V30 6282 H  -28.9694 13.0915 -20.8678 0
M  V30 6283 H  -28.6507 11.6829 -21.8593 0
M  V30 6284 H  -27.8851 11.8337 -20.2772 0
M  V30 6285 H  -25.3316 12.6587 -19.8974 0
M  V30 6286 H  -25.3317 15.1822 -18.5638 0
M  V30 6287 H  -23.0263 14.1790 -17.7122 0
M  V30 6288 H  -23.5857 12.7197 -18.4674 0
M  V30 6289 H  -26.6614 13.1175 -17.7158 0
M  V30 6290 H  -22.9607 13.2957 -15.4907 0
M  V30 6291 H  -27.8396 12.4921 -15.6721 0
M  V30 6292 H  -24.1828 12.6291 -13.4652 0
M  V30 6293 H  -26.6158 12.2531 -13.5448 0
M  V30 6294 H  -23.1653 13.8353 -21.1085 0
M  V30 6295 H  -21.4370 16.0621 -21.2567 0
M  V30 6296 H  -24.6624 15.5915 -22.6929 0
M  V30 6297 H  -24.4655 17.7995 -24.5073 0
M  V30 6298 H  -26.1178 15.8064 -24.6036 0
M  V30 6299 H  -26.6780 17.3947 -25.0494 0
M  V30 6300 H  -27.1277 16.1733 -22.5409 0
M  V30 6301 H  -25.3491 17.5188 -21.0684 0
M  V30 6302 H  -26.1108 20.3202 -20.8134 0
M  V30 6303 H  -26.1691 19.7364 -18.3568 0
M  V30 6304 H  -27.2003 18.7429 -19.3642 0
M  V30 6305 H  -25.6694 18.0984 -18.7657 0
M  V30 6306 H  -23.0704 18.4760 -20.5800 0
M  V30 6307 H  -21.5610 20.4444 -19.1525 0
M  V30 6308 H  -19.5712 19.3378 -20.3283 0
M  V30 6309 H  -20.6880 18.3364 -21.1901 0
M  V30 6310 H  -21.4542 17.3746 -19.0129 0
M  V30 6311 H  -19.9406 15.7424 -19.2919 0
M  V30 6312 H  -19.1084 16.7772 -20.4390 0
M  V30 6313 H  -18.5985 16.7460 -18.7662 0
M  V30 6314 H  -19.4931 17.9459 -17.1264 0
M  V30 6315 H  -19.8171 19.5175 -17.8324 0
M  V30 6316 H  -21.1281 18.5720 -17.1429 0
M  V30 6317 H  -21.9600 19.8077 -22.6664 0
M  V30 6318 H  -20.4615 22.1588 -23.5073 0
M  V30 6319 H  -23.4892 22.2118 -23.2082 0
M  V30 6320 H  -21.1884 21.4649 -25.8071 0
M  V30 6321 H  -22.2047 20.2090 -25.1192 0
M  V30 6322 H  -20.3846 18.8217 -24.0235 0
M  V30 6323 C  -13.9365 2.1852 29.6686 0
M  V30 6324 C  -14.1404 3.7099 29.5368 0
M  V30 6325 C  -13.4621 4.4631 30.6813 0
M  V30 6326 O  -13.8831 4.3632 31.8311 0
M  V30 6327 N  -12.4138 5.2282 30.3711 0
M  V30 6328 H  -14.3533 1.8769 30.6295 0
M  V30 6329 H  -12.8691 1.9640 29.7275 0
M  V30 6330 H  -13.7579 4.0970 28.5945 0
M  V30 6331 H  -15.2055 3.9437 29.5511 0
M  V30 6332 H  -11.9366 5.7461 31.0941 0
M  V30 6333 H  -12.0916 5.2949 29.4166 0
M  V30 6334 C  -39.0562 15.4600 -25.0477 0
M  V30 6335 C  -38.9591 16.9972 -25.0068 0
M  V30 6336 C  -39.8100 17.6520 -23.8992 0
M  V30 6337 C  -39.7618 19.1905 -23.8957 0
M  V30 6338 N  -40.4026 19.7860 -25.0837 0 CHG=1
M  V30 6339 H  -38.5034 15.0977 -25.9162 0
M  V30 6340 H  -40.0978 15.1865 -25.2236 0
M  V30 6341 H  -37.9174 17.2977 -24.8876 0
M  V30 6342 H  -39.2642 17.3773 -25.9818 0
M  V30 6343 H  -40.8425 17.3069 -23.9719 0
M  V30 6344 H  -39.4540 17.3158 -22.9254 0
M  V30 6345 H  -40.2743 19.5697 -23.0108 0
M  V30 6346 H  -38.7289 19.5356 -23.8341 0
M  V30 6347 H  -41.3712 19.5025 -25.1253 0
M  V30 6348 H  -40.3505 20.7932 -25.0264 0
M  V30 6349 H  -39.9253 19.4737 -25.9174 0
M  V30 6350 C  -40.0822 13.8888 -19.9429 0
M  V30 6351 C  -41.2292 14.5766 -19.1797 0
M  V30 6352 C  -41.4169 16.0474 -19.5872 0
M  V30 6353 N  -42.6095 16.6453 -18.9585 0
M  V30 6354 C  -43.8907 16.5461 -19.3658 0
M  V30 6355 N  -44.2418 15.8737 -20.4735 0
M  V30 6356 N  -44.8469 17.1376 -18.6382 0 CHG=1
M  V30 6357 H  -39.1631 14.4472 -19.7599 0
M  V30 6358 H  -40.2744 13.9647 -21.0129 0
M  V30 6359 H  -42.1718 14.0316 -19.2371 0
M  V30 6360 H  -40.9354 14.5535 -18.1287 0
M  V30 6361 H  -40.5862 16.6162 -19.1667 0
M  V30 6362 H  -41.3663 16.1988 -20.6662 0
M  V30 6363 H  -42.4298 17.1420 -18.0974 0
M  V30 6364 H  -45.2093 15.8085 -20.7549 0
M  V30 6365 H  -43.5334 15.4119 -21.0252 0
M  V30 6366 H  -45.8154 17.0761 -18.9174 0
M  V30 6367 H  -44.6101 17.6470 -17.7990 0
M  V30 6368 C  -42.5158 10.1852 -22.9769 0
M  V30 6369 C  -43.7281 9.3839 -23.4688 0
M  V30 6370 O  -44.8699 9.7804 -23.2487 0
M  V30 6371 N  -43.4824 8.2527 -24.1343 0
M  V30 6372 H  -42.6916 11.2285 -23.2427 0
M  V30 6373 H  -41.6191 9.8838 -23.5227 0
M  V30 6374 H  -44.2504 7.6914 -24.4720 0
M  V30 6375 H  -42.5346 7.9436 -24.2964 0
M  V30 6376 C  -26.4182 15.5586 5.3806 0 CFG=2
M  V30 6377 C  -26.2038 14.4316 4.3323 0
M  V30 6378 C  -25.0891 16.2234 5.8140 0
M  V30 6379 C  -25.4606 13.1759 4.8051 0
M  V30 6380 H  -26.9543 16.3388 4.8511 0
M  V30 6381 H  -27.1635 14.1046 3.9416 0
M  V30 6382 H  -25.6896 14.8338 3.4628 0
M  V30 6383 H  -24.5907 16.7278 4.9976 0
M  V30 6384 H  -25.2233 17.0004 6.5643 0
M  V30 6385 H  -24.3929 15.4976 6.2266 0
M  V30 6386 H  -25.9327 12.2822 4.3985 0
M  V30 6387 H  -24.4370 13.1751 4.4431 0
M  V30 6388 H  -25.4435 13.0705 5.8882 0
M  V30 6389 C  -27.7245 18.7731 13.6429 0
M  V30 6390 C  -27.6077 20.1802 14.1952 0
M  V30 6391 C  -27.0468 21.1957 13.3919 0
M  V30 6392 C  -28.0636 20.4863 15.4936 0
M  V30 6393 C  -26.9377 22.5096 13.8837 0
M  V30 6394 C  -27.9502 21.8008 15.9874 0
M  V30 6395 C  -27.3878 22.8124 15.1833 0
M  V30 6396 O  -27.2802 24.0850 15.6629 0
M  V30 6397 H  -27.7946 18.8945 12.5686 0
M  V30 6398 H  -28.6653 18.3222 13.9544 0
M  V30 6399 H  -26.6979 20.9707 12.3944 0
M  V30 6400 H  -28.4963 19.7140 16.1126 0
M  V30 6401 H  -26.5068 23.2803 13.2616 0
M  V30 6402 H  -28.2968 22.0320 16.9839 0
M  V30 6403 H  -26.8880 24.6940 15.0331 0
M  V30 6404 C  -53.2348 -5.0313 -17.0963 0 CFG=2
M  V30 6405 C  -53.7287 -6.4495 -16.7111 0
M  V30 6406 C  -54.2173 -3.9785 -16.5285 0
M  V30 6407 C  -55.0259 -6.9042 -17.4009 0
M  V30 6408 H  -52.2901 -4.8925 -16.5675 0
M  V30 6409 H  -52.9489 -7.1806 -16.9249 0
M  V30 6410 H  -53.8670 -6.5023 -15.6305 0
M  V30 6411 H  -54.4716 -4.2001 -15.4917 0
M  V30 6412 H  -53.8098 -2.9703 -16.5253 0
M  V30 6413 H  -55.1473 -3.9509 -17.0959 0
M  V30 6414 H  -55.3766 -7.8419 -16.9693 0
M  V30 6415 H  -55.8277 -6.1753 -17.2864 0
M  V30 6416 H  -54.8732 -7.0753 -18.4666 0
M  V30 6417 C  -31.7920 10.6843 29.9707 0
M  V30 6418 C  -32.5899 9.6144 29.2002 0
M  V30 6419 S  -33.5306 8.4311 30.2084 0
M  V30 6420 C  -32.1890 7.3865 30.8369 0
M  V30 6421 H  -31.2153 11.2659 29.2492 0
M  V30 6422 H  -31.0520 10.1879 30.5994 0
M  V30 6423 H  -33.2910 10.0975 28.5191 0
M  V30 6424 H  -31.9095 9.0481 28.5636 0
M  V30 6425 H  -32.5968 6.5774 31.4426 0
M  V30 6426 H  -31.6251 6.9510 30.0120 0
M  V30 6427 H  -31.5076 7.9692 31.4566 0
M  V30 6428 C  -26.1611 12.4316 31.2044 0
M  V30 6429 C  -26.2537 11.4134 30.0842 0
M  V30 6430 C  -25.2236 10.4641 29.9144 0
M  V30 6431 C  -27.3661 11.4028 29.2173 0
M  V30 6432 C  -25.3010 9.5128 28.8795 0
M  V30 6433 C  -27.4424 10.4518 28.1806 0
M  V30 6434 C  -26.4102 9.5071 28.0107 0
M  V30 6435 O  -26.4850 8.5875 27.0054 0
M  V30 6436 H  -26.6127 13.3692 30.8768 0
M  V30 6437 H  -25.1024 12.6688 31.3219 0
M  V30 6438 H  -24.3706 10.4634 30.5769 0
M  V30 6439 H  -28.1633 12.1209 29.3458 0
M  V30 6440 H  -24.5068 8.7915 28.7553 0
M  V30 6441 H  -28.2954 10.4491 27.5175 0
M  V30 6442 H  -25.7336 7.9910 26.9831 0
M  V30 6443 C  -22.5314 10.4517 34.3338 0
M  V30 6444 C  -23.0242 8.9954 34.4297 0
M  V30 6445 C  -21.9189 7.9448 34.2189 0
M  V30 6446 C  -21.3439 7.9189 32.7907 0
M  V30 6447 N  -20.3345 6.8568 32.6266 0 CHG=1
M  V30 6448 H  -22.1455 10.6539 33.3342 0
M  V30 6449 H  -21.6864 10.5663 35.0149 0
M  V30 6450 H  -23.4700 8.8375 35.4126 0
M  V30 6451 H  -23.8245 8.8235 33.7089 0
M  V30 6452 H  -21.1176 8.1257 34.9371 0
M  V30 6453 H  -22.3263 6.9636 34.4689 0
M  V30 6454 H  -22.1424 7.7535 32.0667 0
M  V30 6455 H  -20.8778 8.8729 32.5443 0
M  V30 6456 H  -20.7534 5.9579 32.8183 0
M  V30 6457 H  -19.9837 6.8670 31.6793 0
M  V30 6458 H  -19.5702 7.0139 33.2680 0
M  V30 6459 C  -28.3780 15.2816 27.7416 0
M  V30 6460 C  -27.0120 15.9821 27.9384 0
M  V30 6461 C  -25.8431 15.0606 27.5402 0
M  V30 6462 C  -26.9333 17.3418 27.2217 0
M  V30 6463 H  -28.2825 14.2615 28.1170 0
M  V30 6464 H  -28.5536 15.1806 26.6685 0
M  V30 6465 H  -26.8808 16.1752 28.9999 0
M  V30 6466 H  -25.1320 15.5575 26.8802 0
M  V30 6467 H  -25.2885 14.7405 28.4228 0
M  V30 6468 H  -26.1838 14.1607 27.0278 0
M  V30 6469 H  -26.2401 18.0080 27.7360 0
M  V30 6470 H  -26.5930 17.2370 26.1908 0
M  V30 6471 H  -27.8967 17.8473 27.1976 0
M  V30 6472 C  -34.2954 15.9565 26.7802 0
M  V30 6473 C  -34.2526 17.1372 25.7955 0
M  V30 6474 C  -35.4927 18.0428 25.7592 0
M  V30 6475 N  -35.5838 18.9190 26.9407 0
M  V30 6476 C  -36.4430 19.9364 27.1350 0
M  V30 6477 N  -37.3761 20.2695 26.2292 0
M  V30 6478 N  -36.3611 20.6399 28.2709 0 CHG=1
M  V30 6479 H  -35.1435 15.3247 26.5123 0
M  V30 6480 H  -34.5052 16.3177 27.7873 0
M  V30 6481 H  -33.4291 17.7466 26.1631 0
M  V30 6482 H  -33.9956 16.8337 24.7806 0
M  V30 6483 H  -35.5628 18.5804 24.8132 0
M  V30 6484 H  -36.3776 17.4106 25.8261 0
M  V30 6485 H  -34.9041 18.7304 27.6634 0
M  V30 6486 H  -38.0059 21.0405 26.3966 0
M  V30 6487 H  -37.4428 19.7519 25.3650 0
M  V30 6488 H  -36.9894 21.4109 28.4435 0
M  V30 6489 H  -35.6627 20.4097 28.9634 0
M  V30 6490 C  -50.9157 3.8517 23.5057 0
M  V30 6491 C  -50.3509 4.9487 24.4279 0
M  V30 6492 C  -50.8674 6.3616 24.1064 0
M  V30 6493 C  -52.3763 6.5447 24.3518 0
M  V30 6494 N  -52.8041 7.9333 24.1070 0 CHG=1
M  V30 6495 H  -50.7241 4.1154 22.4641 0
M  V30 6496 H  -52.0000 3.8237 23.6179 0
M  V30 6497 H  -50.5815 4.7066 25.4663 0
M  V30 6498 H  -49.2625 4.9598 24.3590 0
M  V30 6499 H  -50.3067 7.0774 24.7101 0
M  V30 6500 H  -50.6301 6.5973 23.0675 0
M  V30 6501 H  -52.9585 5.8917 23.7020 0
M  V30 6502 H  -52.6243 6.2820 25.3807 0
M  V30 6503 H  -52.6106 8.1828 23.1477 0
M  V30 6504 H  -53.7954 8.0179 24.2822 0
M  V30 6505 H  -52.3005 8.5550 24.7236 0
M  V30 6506 C  -46.9669 -3.5016 21.5852 0
M  V30 6507 C  -46.3083 -4.3270 22.7207 0
M  V30 6508 C  -45.9570 -5.7846 22.3902 0
M  V30 6509 O  -44.8862 -6.2604 22.7594 0
M  V30 6510 N  -46.8463 -6.5041 21.7019 0
M  V30 6511 H  -47.4307 -2.6331 22.0563 0
M  V30 6512 H  -47.7951 -4.0532 21.1410 0
M  V30 6513 H  -45.4154 -3.8122 23.0785 0
M  V30 6514 H  -46.9932 -4.3584 23.5686 0
M  V30 6515 H  -46.6432 -7.4661 21.4734 0
M  V30 6516 H  -47.7228 -6.0973 21.4106 0
M  V30 6517 C  -46.7836 -6.2271 16.8906 0
M  V30 6518 C  -46.3971 -7.2067 15.7869 0
M  V30 6519 C  -45.4001 -8.1858 16.0043 0
M  V30 6520 C  -47.1340 -7.2456 14.5835 0
M  V30 6521 C  -45.0994 -9.1094 15.0135 0
M  V30 6522 C  -46.8260 -8.1865 13.6090 0
M  V30 6523 C  -45.8074 -9.1075 13.8193 0
M  V30 6524 H  -47.4533 -6.7536 17.5716 0
M  V30 6525 H  -47.3774 -5.4237 16.4519 0
M  V30 6526 H  -44.8511 -8.2188 16.9334 0
M  V30 6527 H  -47.9324 -6.5387 14.4109 0
M  V30 6528 H  -44.3207 -9.8399 15.1770 0
M  V30 6529 H  -47.3816 -8.2012 12.6830 0
M  V30 6530 H  -45.5726 -9.8330 13.0544 0
M  V30 6531 C  -26.4527 -4.0313 -24.5186 0
M  V30 6532 C  -25.0697 -3.8854 -23.8404 0
M  V30 6533 C  -24.6877 -5.0099 -22.8555 0
M  V30 6534 N  -24.4345 -6.2913 -23.5413 0
M  V30 6535 C  -24.1989 -7.4907 -22.9752 0
M  V30 6536 N  -24.1917 -7.6647 -21.6441 0
M  V30 6537 N  -23.9598 -8.5435 -23.7679 0 CHG=1
M  V30 6538 H  -26.4668 -4.9431 -25.1172 0
M  V30 6539 H  -26.5608 -3.2141 -25.2333 0
M  V30 6540 H  -24.3425 -3.8883 -24.6539 0
M  V30 6541 H  -24.9429 -2.9120 -23.3659 0
M  V30 6542 H  -23.8583 -4.7105 -22.2139 0
M  V30 6543 H  -25.5278 -5.1991 -22.1887 0
M  V30 6544 H  -24.4314 -6.2420 -24.5503 0
M  V30 6545 H  -24.0094 -8.5739 -21.2438 0
M  V30 6546 H  -24.3816 -6.8840 -21.0333 0
M  V30 6547 H  -23.7683 -9.4512 -23.3686 0
M  V30 6548 H  -23.9359 -8.4348 -24.7717 0
M  V30 6549 C  -27.1045 -6.2989 16.7607 0
M  V30 6550 C  -27.0807 -5.6418 18.1592 0
M  V30 6551 C  -27.0450 -4.1020 18.1325 0
M  V30 6552 C  -28.3412 -3.4261 17.6424 0
M  V30 6553 N  -29.4756 -3.6409 18.5615 0 CHG=1
M  V30 6554 H  -26.2274 -5.9517 16.2133 0
M  V30 6555 H  -27.9698 -5.9605 16.1901 0
M  V30 6556 H  -27.9323 -5.9716 18.7526 0
M  V30 6557 H  -26.2020 -5.9971 18.6986 0
M  V30 6558 H  -26.7907 -3.7333 19.1278 0
M  V30 6559 H  -26.2223 -3.7817 17.4913 0
M  V30 6560 H  -28.1793 -2.3514 17.5528 0
M  V30 6561 H  -28.6126 -3.7826 16.6485 0
M  V30 6562 H  -29.2532 -3.2622 19.4708 0
M  V30 6563 H  -30.2975 -3.1812 18.1958 0
M  V30 6564 H  -29.6585 -4.6309 18.6440 0
M  V30 6565 C  -16.3466 -12.9216 24.9622 0
M  V30 6566 C  -15.2110 -13.8617 25.3759 0
M  V30 6567 O  -15.4634 -14.9813 25.8126 0
M  V30 6568 N  -13.9570 -13.4351 25.2029 0
M  V30 6569 H  -17.3127 -13.3912 25.1549 0
M  V30 6570 H  -16.2661 -12.8456 23.8765 0
M  V30 6571 H  -13.1829 -14.0360 25.4446 0
M  V30 6572 H  -13.7667 -12.5275 24.8020 0
M  V30 6573 C  -19.8929 -8.1779 25.7810 0
M  V30 6574 C  -19.3411 -7.2958 26.9176 0
M  V30 6575 C  -20.4181 -6.8272 27.8995 0
M  V30 6576 N  -19.8813 -5.7887 28.7952 0
M  V30 6577 C  -20.5147 -5.1782 29.8115 0
M  V30 6578 N  -21.7752 -5.4853 30.1515 0
M  V30 6579 N  -19.8616 -4.2371 30.5042 0 CHG=1
M  V30 6580 H  -20.6077 -7.5775 25.2158 0
M  V30 6581 H  -20.4759 -9.0047 26.1869 0
M  V30 6582 H  -18.6353 -7.9208 27.4675 0
M  V30 6583 H  -18.7736 -6.4387 26.5549 0
M  V30 6584 H  -21.3428 -6.5344 27.4009 0
M  V30 6585 H  -20.6636 -7.6645 28.5544 0
M  V30 6586 H  -18.9307 -5.5078 28.6002 0
M  V30 6587 H  -22.2237 -5.0323 30.9342 0
M  V30 6588 H  -22.2566 -6.2273 29.6621 0
M  V30 6589 H  -20.3072 -3.7674 31.2791 0
M  V30 6590 H  -18.9224 -3.9716 30.2405 0
M  V30 6591 C  -13.6421 -9.2880 21.6216 0
M  V30 6592 C  -12.4322 -9.1828 22.5834 0
M  V30 6593 C  -11.5765 -10.4542 22.7263 0
M  V30 6594 O  -10.5770 -10.3659 23.4732 0
M  V30 6595 O  -11.9162 -11.4921 22.1142 0 CHG=-1
M  V30 6596 H  -14.3042 -10.0886 21.9574 0
M  V30 6597 H  -13.2932 -9.5798 20.6295 0
M  V30 6598 H  -11.7831 -8.3714 22.2516 0
M  V30 6599 H  -12.7779 -8.9101 23.5811 0
M  V30 6600 C  -23.5892 4.4297 -23.9386 0
M  V30 6601 C  -22.4490 3.3992 -23.8270 0
M  V30 6602 C  -22.2108 2.5809 -25.1127 0
M  V30 6603 C  -23.3654 1.6523 -25.5425 0
M  V30 6604 N  -23.6209 0.5695 -24.5736 0 CHG=1
M  V30 6605 H  -24.5289 3.9300 -24.1785 0
M  V30 6606 H  -23.3718 5.0901 -24.7799 0
M  V30 6607 H  -21.5273 3.9266 -23.5780 0
M  V30 6608 H  -22.6326 2.7260 -22.9896 0
M  V30 6609 H  -21.9998 3.2710 -25.9303 0
M  V30 6610 H  -21.2981 1.9950 -24.9939 0
M  V30 6611 H  -24.2844 2.2176 -25.6971 0
M  V30 6612 H  -23.1214 1.1918 -26.5002 0
M  V30 6613 H  -23.8881 0.9684 -23.6845 0
M  V30 6614 H  -24.3707 -0.0157 -24.9141 0
M  V30 6615 H  -22.7854 0.0140 -24.4583 0
M  V30 6616 C  -21.8577 8.5999 -20.4217 0
M  V30 6617 C  -20.9793 8.7926 -21.6734 0
M  V30 6618 C  -19.8952 7.7231 -21.8348 0
M  V30 6619 C  -19.1154 7.9139 -23.1465 0
M  V30 6620 N  -18.0498 6.9092 -23.3029 0 CHG=1
M  V30 6621 H  -21.2141 8.5757 -19.5423 0
M  V30 6622 H  -22.2868 7.6042 -20.4915 0
M  V30 6623 H  -21.6123 8.7629 -22.5593 0
M  V30 6624 H  -20.5039 9.7744 -21.6488 0
M  V30 6625 H  -19.2170 7.7699 -20.9812 0
M  V30 6626 H  -20.3552 6.7338 -21.8107 0
M  V30 6627 H  -19.7917 7.8421 -23.9997 0
M  V30 6628 H  -18.6642 8.9065 -23.1767 0
M  V30 6629 H  -18.4547 5.9839 -23.3017 0
M  V30 6630 H  -17.5629 7.0619 -24.1745 0
M  V30 6631 H  -17.3977 6.9893 -22.5357 0
M  V30 6632 C  -21.4165 14.5287 -22.7466 0
M  V30 6633 C  -20.3485 15.1498 -23.6721 0
M  V30 6634 C  -19.5400 14.1223 -24.4808 0
M  V30 6635 C  -20.3744 13.3862 -25.5448 0
M  V30 6636 N  -19.5432 12.4934 -26.3712 0 CHG=1
M  V30 6637 H  -20.9219 13.8056 -22.0966 0
M  V30 6638 H  -22.1348 13.9663 -23.3399 0
M  V30 6639 H  -20.8088 15.8460 -24.3732 0
M  V30 6640 H  -19.6604 15.7429 -23.0680 0
M  V30 6641 H  -18.7051 14.6398 -24.9565 0
M  V30 6642 H  -19.0938 13.4004 -23.7951 0
M  V30 6643 H  -21.1575 12.7889 -25.0774 0
M  V30 6644 H  -20.8657 14.1051 -26.2014 0
M  V30 6645 H  -19.1026 11.8012 -25.7826 0
M  V30 6646 H  -20.1251 12.0305 -27.0549 0
M  V30 6647 H  -18.8339 13.0343 -26.8453 0
M  V30 6648 C  -34.5088 -12.6625 -38.2665 0
M  V30 6649 C  -35.4422 -11.8909 -39.2221 0
M  V30 6650 C  -36.5355 -11.0885 -38.4978 0
M  V30 6651 N  -37.3221 -10.2698 -39.4404 0
M  V30 6652 C  -37.0138 -9.0501 -39.9238 0
M  V30 6653 N  -35.9096 -8.3867 -39.5454 0
M  V30 6654 N  -37.8375 -8.4807 -40.8134 0 CHG=1
M  V30 6655 H  -35.1191 -13.3169 -37.6430 0
M  V30 6656 H  -34.0279 -11.9574 -37.5867 0
M  V30 6657 H  -34.9038 -11.2546 -39.9249 0
M  V30 6658 H  -35.9350 -12.6526 -39.8288 0
M  V30 6659 H  -37.2598 -11.7969 -38.0943 0
M  V30 6660 H  -36.1528 -10.5296 -37.6426 0
M  V30 6661 H  -38.1576 -10.7150 -39.7927 0
M  V30 6662 H  -35.6999 -7.4730 -39.9202 0
M  V30 6663 H  -35.2852 -8.7967 -38.8653 0
M  V30 6664 H  -37.6302 -7.5672 -41.1906 0
M  V30 6665 H  -38.6744 -8.9584 -41.1155 0
M  V30 6666 C  -41.7867 -24.2424 -32.9711 0
M  V30 6667 C  -42.0093 -25.7613 -32.7833 0
M  V30 6668 C  -41.9370 -26.2022 -31.3182 0
M  V30 6669 O  -42.6239 -25.6454 -30.4654 0
M  V30 6670 N  -41.1174 -27.2121 -31.0208 0
M  V30 6671 H  -42.5926 -23.7106 -32.4619 0
M  V30 6672 H  -41.9051 -24.0021 -34.0294 0
M  V30 6673 H  -42.9963 -26.0269 -33.1633 0
M  V30 6674 H  -41.2978 -26.3293 -33.3840 0
M  V30 6675 H  -41.0360 -27.5274 -30.0655 0
M  V30 6676 H  -40.5529 -27.6391 -31.7400 0
M  V30 6677 C  -35.2550 -30.2615 -28.6171 0
M  V30 6678 C  -35.8841 -31.6346 -28.2947 0
M  V30 6679 C  -37.4208 -31.6635 -28.4215 0
M  V30 6680 N  -37.8839 -31.5731 -29.8206 0
M  V30 6681 C  -39.1595 -31.5489 -30.2548 0
M  V30 6682 N  -40.2041 -31.5968 -29.4129 0
M  V30 6683 N  -39.3937 -31.4716 -31.5711 0 CHG=1
M  V30 6684 H  -35.7337 -29.5044 -27.9946 0
M  V30 6685 H  -35.4925 -29.9975 -29.6477 0
M  V30 6686 H  -35.4778 -32.3508 -29.0099 0
M  V30 6687 H  -35.5790 -32.0016 -27.3140 0
M  V30 6688 H  -37.8499 -32.5126 -27.8885 0
M  V30 6689 H  -37.8145 -30.7680 -27.9394 0
M  V30 6690 H  -37.1499 -31.4911 -30.5091 0
M  V30 6691 H  -41.1516 -31.5786 -29.7619 0
M  V30 6692 H  -40.0452 -31.6514 -28.4171 0
M  V30 6693 H  -40.3407 -31.4566 -31.9218 0
M  V30 6694 H  -38.6280 -31.4204 -32.2274 0
M  V30 6695 C  -11.7705 -30.9726 -30.0267 0
M  V30 6696 C  -10.7052 -31.4162 -28.9953 0
M  V30 6697 C  -11.2488 -32.0386 -27.6914 0
M  V30 6698 N  -11.8889 -33.3492 -27.9154 0
M  V30 6699 C  -12.4946 -34.1279 -26.9981 0
M  V30 6700 N  -12.5965 -33.7663 -25.7094 0
M  V30 6701 N  -13.0126 -35.3007 -27.3847 0 CHG=1
M  V30 6702 H  -12.3475 -31.8432 -30.3392 0
M  V30 6703 H  -11.2497 -30.6333 -30.9233 0
M  V30 6704 H  -10.0962 -32.1682 -29.4992 0
M  V30 6705 H  -10.0045 -30.6138 -28.7613 0
M  V30 6706 H  -10.4709 -32.0914 -26.9296 0
M  V30 6707 H  -12.0258 -31.3934 -27.2832 0
M  V30 6708 H  -11.8451 -33.6861 -28.8664 0
M  V30 6709 H  -13.0528 -34.3656 -25.0370 0
M  V30 6710 H  -12.1954 -32.8925 -25.4010 0
M  V30 6711 H  -13.4681 -35.9046 -26.7157 0
M  V30 6712 H  -12.9437 -35.5977 -28.3474 0
M  V30 6713 C  -11.9316 -22.1441 -23.3546 0
M  V30 6714 C  -13.1504 -22.7319 -22.6222 0
M  V30 6715 C  -13.1881 -22.3319 -21.1418 0
M  V30 6716 C  -14.3780 -22.9632 -20.4028 0
M  V30 6717 N  -14.3374 -22.6806 -18.9572 0 CHG=1
M  V30 6718 H  -11.0239 -22.4315 -22.8227 0
M  V30 6719 H  -11.9833 -21.0567 -23.2859 0
M  V30 6720 H  -14.0671 -22.4123 -23.1174 0
M  V30 6721 H  -13.1375 -23.8203 -22.6880 0
M  V30 6722 H  -12.2514 -22.6321 -20.6684 0
M  V30 6723 H  -13.2379 -21.2446 -21.0647 0
M  V30 6724 H  -15.3188 -22.5930 -20.8124 0
M  V30 6725 H  -14.3736 -24.0455 -20.5385 0
M  V30 6726 H  -14.3694 -21.6825 -18.8052 0
M  V30 6727 H  -15.1325 -23.1135 -18.5086 0
M  V30 6728 H  -13.4859 -23.0548 -18.5632 0
M  V30 6729 H  -32.9461 8.1444 -4.5298 0
M  V30 6730 H  -45.2743 1.1491 -14.6915 0
M  V30 6731 H  -40.9038 9.3337 24.9689 0
M  V30 END ATOM
M  V30 BEGIN BOND
M  V30 1 1 1 2
M  V30 2 1 1 3158
M  V30 3 1 1 3159
M  V30 4 1 2 3
M  V30 5 1 2 5
M  V30 6 1 2 3160
M  V30 7 2 3 4
M  V30 8 1 3 7
M  V30 9 1 5 6
M  V30 10 1 5 3161
M  V30 11 1 5 3162
M  V30 12 1 6 2817
M  V30 13 1 7 8
M  V30 14 1 7 3163
M  V30 15 1 8 9
M  V30 16 1 8 3164
M  V30 17 1 8 6323
M  V30 18 2 9 10
M  V30 19 1 9 11
M  V30 20 1 11 12
M  V30 21 1 11 3165
M  V30 22 1 12 13
M  V30 23 1 12 3166
M  V30 24 1 12 3167
M  V30 25 2 13 14
M  V30 26 1 13 15
M  V30 27 1 15 16
M  V30 28 1 15 21
M  V30 29 1 16 17
M  V30 30 1 16 19
M  V30 31 1 16 3168
M  V30 32 2 17 18
M  V30 33 1 17 22
M  V30 34 1 19 20
M  V30 35 1 19 3169
M  V30 36 1 19 3170
M  V30 37 1 20 21
M  V30 38 1 20 3171
M  V30 39 1 20 3172
M  V30 40 1 21 3173
M  V30 41 1 21 3174
M  V30 42 1 22 23
M  V30 43 1 22 3175
M  V30 44 1 23 24
M  V30 45 1 23 26
M  V30 46 1 23 3176
M  V30 47 2 24 25
M  V30 48 1 24 30
M  V30 49 1 26 27
M  V30 50 1 26 28
M  V30 51 1 26 3177
M  V30 52 1 27 29
M  V30 53 1 27 3178
M  V30 54 1 27 3179
M  V30 55 1 28 3180
M  V30 56 1 28 3181
M  V30 57 1 28 3182
M  V30 58 1 29 3183
M  V30 59 1 29 3184
M  V30 60 1 29 3185
M  V30 61 1 30 31
M  V30 62 1 30 3186
M  V30 63 1 31 32
M  V30 64 1 31 34
M  V30 65 1 31 3187
M  V30 66 2 32 33
M  V30 67 1 32 39
M  V30 68 1 34 35
M  V30 69 1 34 3188
M  V30 70 1 34 3189
M  V30 71 1 35 36
M  V30 72 1 35 3190
M  V30 73 1 35 3191
M  V30 74 2 36 37
M  V30 75 1 36 38
M  V30 76 1 39 40
M  V30 77 1 39 3192
M  V30 78 1 40 41
M  V30 79 1 40 43
M  V30 80 1 40 3193
M  V30 81 2 41 42
M  V30 82 1 41 47
M  V30 83 1 43 44
M  V30 84 1 43 45
M  V30 85 1 43 3194
M  V30 86 1 44 46
M  V30 87 1 44 3195
M  V30 88 1 44 3196
M  V30 89 1 45 3197
M  V30 90 1 45 3198
M  V30 91 1 45 3199
M  V30 92 1 46 3200
M  V30 93 1 46 3201
M  V30 94 1 46 3202
M  V30 95 1 47 48
M  V30 96 1 47 3203
M  V30 97 1 48 49
M  V30 98 1 48 51
M  V30 99 1 48 3204
M  V30 100 2 49 50
M  V30 101 1 49 56
M  V30 102 1 51 52
M  V30 103 1 51 3205
M  V30 104 1 51 3206
M  V30 105 1 52 53
M  V30 106 1 52 3207
M  V30 107 1 52 3208
M  V30 108 1 53 54
M  V30 109 1 53 3209
M  V30 110 1 53 3210
M  V30 111 1 54 55
M  V30 112 1 54 3211
M  V30 113 1 54 3212
M  V30 114 1 55 3213
M  V30 115 1 55 3214
M  V30 116 1 55 3215
M  V30 117 1 56 57
M  V30 118 1 56 3216
M  V30 119 1 57 58
M  V30 120 1 57 60
M  V30 121 1 57 3217
M  V30 122 2 58 59
M  V30 123 1 58 65
M  V30 124 1 60 61
M  V30 125 1 60 3218
M  V30 126 1 60 3219
M  V30 127 1 61 62
M  V30 128 1 61 3220
M  V30 129 1 61 3221
M  V30 130 2 62 63
M  V30 131 1 62 64
M  V30 132 1 65 66
M  V30 133 1 65 3222
M  V30 134 1 66 67
M  V30 135 1 66 69
M  V30 136 1 66 3223
M  V30 137 2 67 68
M  V30 138 1 67 72
M  V30 139 1 69 70
M  V30 140 1 69 71
M  V30 141 1 69 3224
M  V30 142 1 70 3225
M  V30 143 1 71 3226
M  V30 144 1 71 3227
M  V30 145 1 71 3228
M  V30 146 1 72 73
M  V30 147 1 72 3229
M  V30 148 1 73 74
M  V30 149 1 73 76
M  V30 150 1 73 3230
M  V30 151 2 74 75
M  V30 152 1 74 83
M  V30 153 1 76 77
M  V30 154 1 76 3231
M  V30 155 1 76 3232
M  V30 156 2 77 78
M  V30 157 1 77 79
M  V30 158 1 78 80
M  V30 159 1 78 3233
M  V30 160 2 79 81
M  V30 161 1 79 3234
M  V30 162 2 80 82
M  V30 163 1 80 3235
M  V30 164 1 81 82
M  V30 165 1 81 3236
M  V30 166 1 82 3237
M  V30 167 1 83 84
M  V30 168 1 83 3238
M  V30 169 1 84 85
M  V30 170 1 84 87
M  V30 171 1 84 3239
M  V30 172 2 85 86
M  V30 173 1 85 92
M  V30 174 1 87 88
M  V30 175 1 87 3240
M  V30 176 1 87 3241
M  V30 177 1 88 89
M  V30 178 1 88 3242
M  V30 179 1 88 3243
M  V30 180 1 89 90
M  V30 181 1 89 3244
M  V30 182 1 89 3245
M  V30 183 1 90 91
M  V30 184 1 90 3246
M  V30 185 1 90 3247
M  V30 186 1 91 3248
M  V30 187 1 91 3249
M  V30 188 1 91 3250
M  V30 189 1 92 93
M  V30 190 1 92 3251
M  V30 191 1 93 94
M  V30 192 1 93 96
M  V30 193 1 93 3252
M  V30 194 2 94 95
M  V30 195 1 94 104
M  V30 196 1 96 97
M  V30 197 1 96 3253
M  V30 198 1 96 3254
M  V30 199 2 97 98
M  V30 200 1 97 99
M  V30 201 1 98 100
M  V30 202 1 98 3255
M  V30 203 2 99 101
M  V30 204 1 99 3256
M  V30 205 2 100 102
M  V30 206 1 100 3257
M  V30 207 1 101 102
M  V30 208 1 101 3258
M  V30 209 1 102 103
M  V30 210 1 103 3259
M  V30 211 1 104 105
M  V30 212 1 104 3260
M  V30 213 1 105 106
M  V30 214 1 105 108
M  V30 215 1 105 3261
M  V30 216 2 106 107
M  V30 217 1 106 112
M  V30 218 1 108 109
M  V30 219 1 108 110
M  V30 220 1 108 3262
M  V30 221 1 109 111
M  V30 222 1 109 3263
M  V30 223 1 109 3264
M  V30 224 1 110 3265
M  V30 225 1 110 3266
M  V30 226 1 110 3267
M  V30 227 1 111 3268
M  V30 228 1 111 3269
M  V30 229 1 111 3270
M  V30 230 1 112 113
M  V30 231 1 112 3271
M  V30 232 1 113 114
M  V30 233 1 113 116
M  V30 234 1 113 3272
M  V30 235 2 114 115
M  V30 236 1 114 120
M  V30 237 1 116 117
M  V30 238 1 116 3273
M  V30 239 1 116 3274
M  V30 240 2 117 118
M  V30 241 1 117 119
M  V30 242 1 119 3275
M  V30 243 1 119 3276
M  V30 244 1 120 121
M  V30 245 1 120 3277
M  V30 246 1 121 122
M  V30 247 1 121 124
M  V30 248 1 121 3278
M  V30 249 2 122 123
M  V30 250 1 122 127
M  V30 251 1 124 125
M  V30 252 1 124 126
M  V30 253 1 124 3279
M  V30 254 1 125 3280
M  V30 255 1 126 3281
M  V30 256 1 126 3282
M  V30 257 1 126 3283
M  V30 258 1 127 128
M  V30 259 1 127 3284
M  V30 260 1 128 129
M  V30 261 1 128 131
M  V30 262 1 128 3285
M  V30 263 2 129 130
M  V30 264 1 129 134
M  V30 265 1 131 132
M  V30 266 1 131 133
M  V30 267 1 131 3286
M  V30 268 1 132 3287
M  V30 269 1 132 3288
M  V30 270 1 132 3289
M  V30 271 1 133 3290
M  V30 272 1 133 3291
M  V30 273 1 133 3292
M  V30 274 1 134 135
M  V30 275 1 134 3293
M  V30 276 1 135 136
M  V30 277 1 135 138
M  V30 278 1 135 3294
M  V30 279 2 136 137
M  V30 280 1 136 141
M  V30 281 1 138 139
M  V30 282 1 138 140
M  V30 283 1 138 3295
M  V30 284 1 139 3296
M  V30 285 1 139 3297
M  V30 286 1 139 3298
M  V30 287 1 140 3299
M  V30 288 1 140 3300
M  V30 289 1 140 3301
M  V30 290 1 141 142
M  V30 291 1 141 3302
M  V30 292 1 142 143
M  V30 293 1 142 145
M  V30 294 1 142 3303
M  V30 295 2 143 144
M  V30 296 1 143 147
M  V30 297 1 145 146
M  V30 298 1 145 3304
M  V30 299 1 145 3305
M  V30 300 1 146 3306
M  V30 301 1 147 148
M  V30 302 1 147 3307
M  V30 303 1 148 149
M  V30 304 1 148 151
M  V30 305 1 148 3308
M  V30 306 2 149 150
M  V30 307 1 149 153
M  V30 308 1 151 152
M  V30 309 1 151 3309
M  V30 310 1 151 3310
M  V30 311 1 152 3311
M  V30 312 1 153 154
M  V30 313 1 153 3312
M  V30 314 1 154 155
M  V30 315 1 154 157
M  V30 316 1 154 3313
M  V30 317 2 155 156
M  V30 318 1 155 161
M  V30 319 1 157 158
M  V30 320 1 157 3314
M  V30 321 1 157 3315
M  V30 322 1 158 159
M  V30 323 1 158 160
M  V30 324 1 158 3316
M  V30 325 1 159 3317
M  V30 326 1 159 3318
M  V30 327 1 159 3319
M  V30 328 1 160 3320
M  V30 329 1 160 3321
M  V30 330 1 160 3322
M  V30 331 1 161 162
M  V30 332 1 161 3323
M  V30 333 1 162 163
M  V30 334 1 162 165
M  V30 335 1 162 3324
M  V30 336 2 163 164
M  V30 337 1 163 168
M  V30 338 1 165 166
M  V30 339 1 165 167
M  V30 340 1 165 3325
M  V30 341 1 166 3326
M  V30 342 1 166 3327
M  V30 343 1 166 3328
M  V30 344 1 167 3329
M  V30 345 1 167 3330
M  V30 346 1 167 3331
M  V30 347 1 168 169
M  V30 348 1 168 3332
M  V30 349 1 169 170
M  V30 350 1 169 172
M  V30 351 1 169 3333
M  V30 352 2 170 171
M  V30 353 1 170 179
M  V30 354 1 172 173
M  V30 355 1 172 3334
M  V30 356 1 172 3335
M  V30 357 2 173 174
M  V30 358 1 173 175
M  V30 359 1 174 176
M  V30 360 1 174 3336
M  V30 361 2 175 177
M  V30 362 1 175 3337
M  V30 363 2 176 178
M  V30 364 1 176 3338
M  V30 365 1 177 178
M  V30 366 1 177 3339
M  V30 367 1 178 3340
M  V30 368 1 179 180
M  V30 369 1 179 3341
M  V30 370 1 180 181
M  V30 371 1 180 183
M  V30 372 1 180 3342
M  V30 373 2 181 182
M  V30 374 1 181 186
M  V30 375 1 183 184
M  V30 376 1 183 185
M  V30 377 1 183 3343
M  V30 378 1 184 3344
M  V30 379 1 184 3345
M  V30 380 1 184 3346
M  V30 381 1 185 3347
M  V30 382 1 185 3348
M  V30 383 1 185 3349
M  V30 384 1 186 187
M  V30 385 1 186 3350
M  V30 386 1 187 188
M  V30 387 1 187 190
M  V30 388 1 187 3351
M  V30 389 2 188 189
M  V30 390 1 188 194
M  V30 391 1 190 191
M  V30 392 1 190 3352
M  V30 393 1 190 3353
M  V30 394 1 191 192
M  V30 395 1 191 193
M  V30 396 1 191 3354
M  V30 397 1 192 3355
M  V30 398 1 192 3356
M  V30 399 1 192 3357
M  V30 400 1 193 3358
M  V30 401 1 193 3359
M  V30 402 1 193 3360
M  V30 403 1 194 195
M  V30 404 1 194 3361
M  V30 405 1 195 196
M  V30 406 1 195 3362
M  V30 407 1 195 3363
M  V30 408 2 196 197
M  V30 409 1 196 198
M  V30 410 1 198 199
M  V30 411 1 198 3364
M  V30 412 1 199 200
M  V30 413 1 199 202
M  V30 414 1 199 3365
M  V30 415 2 200 201
M  V30 416 1 200 206
M  V30 417 1 202 203
M  V30 418 1 202 204
M  V30 419 1 202 3366
M  V30 420 1 203 205
M  V30 421 1 203 3367
M  V30 422 1 203 3368
M  V30 423 1 204 3369
M  V30 424 1 204 3370
M  V30 425 1 204 3371
M  V30 426 1 205 3372
M  V30 427 1 205 3373
M  V30 428 1 205 3374
M  V30 429 1 206 207
M  V30 430 1 206 3375
M  V30 431 1 207 208
M  V30 432 1 207 210
M  V30 433 1 207 3376
M  V30 434 2 208 209
M  V30 435 1 208 214
M  V30 436 1 210 211
M  V30 437 1 210 212
M  V30 438 1 210 3377
M  V30 439 1 211 213
M  V30 440 1 211 3378
M  V30 441 1 211 3379
M  V30 442 1 212 3380
M  V30 443 1 212 3381
M  V30 444 1 212 3382
M  V30 445 1 213 3383
M  V30 446 1 213 3384
M  V30 447 1 213 3385
M  V30 448 1 214 215
M  V30 449 1 214 3386
M  V30 450 1 215 216
M  V30 451 1 215 3387
M  V30 452 1 215 3388
M  V30 453 2 216 217
M  V30 454 1 216 218
M  V30 455 1 218 219
M  V30 456 1 218 3389
M  V30 457 1 219 220
M  V30 458 1 219 222
M  V30 459 1 219 3390
M  V30 460 2 220 221
M  V30 461 1 220 226
M  V30 462 1 222 223
M  V30 463 1 222 3391
M  V30 464 1 222 3392
M  V30 465 2 223 224
M  V30 466 1 223 225
M  V30 467 1 225 3393
M  V30 468 1 225 3394
M  V30 469 1 226 227
M  V30 470 1 226 3395
M  V30 471 1 227 228
M  V30 472 1 227 230
M  V30 473 1 227 3396
M  V30 474 2 228 229
M  V30 475 1 228 232
M  V30 476 1 230 231
M  V30 477 1 230 3397
M  V30 478 1 230 3398
M  V30 479 1 231 3399
M  V30 480 1 232 233
M  V30 481 1 232 3400
M  V30 482 1 233 234
M  V30 483 1 233 236
M  V30 484 1 233 3401
M  V30 485 2 234 235
M  V30 486 1 234 239
M  V30 487 1 236 237
M  V30 488 1 236 238
M  V30 489 1 236 3402
M  V30 490 1 237 3403
M  V30 491 1 238 3404
M  V30 492 1 238 3405
M  V30 493 1 238 3406
M  V30 494 1 239 240
M  V30 495 1 239 3407
M  V30 496 1 240 241
M  V30 497 1 240 243
M  V30 498 1 240 3408
M  V30 499 2 241 242
M  V30 500 1 241 247
M  V30 501 1 243 244
M  V30 502 1 243 3409
M  V30 503 1 243 3410
M  V30 504 1 244 245
M  V30 505 1 244 246
M  V30 506 1 244 3411
M  V30 507 1 245 3412
M  V30 508 1 245 3413
M  V30 509 1 245 3414
M  V30 510 1 246 3415
M  V30 511 1 246 3416
M  V30 512 1 246 3417
M  V30 513 1 247 248
M  V30 514 1 247 3418
M  V30 515 1 248 249
M  V30 516 1 248 251
M  V30 517 1 248 3419
M  V30 518 2 249 250
M  V30 519 1 249 255
M  V30 520 1 251 252
M  V30 521 1 251 3420
M  V30 522 1 251 3421
M  V30 523 1 252 253
M  V30 524 1 252 254
M  V30 525 1 252 3422
M  V30 526 1 253 3423
M  V30 527 1 253 3424
M  V30 528 1 253 3425
M  V30 529 1 254 3426
M  V30 530 1 254 3427
M  V30 531 1 254 3428
M  V30 532 1 255 256
M  V30 533 1 255 3429
M  V30 534 1 256 257
M  V30 535 1 256 259
M  V30 536 1 256 3430
M  V30 537 2 257 258
M  V30 538 1 257 267
M  V30 539 1 259 260
M  V30 540 1 259 3431
M  V30 541 1 259 3432
M  V30 542 2 260 261
M  V30 543 1 260 262
M  V30 544 1 261 263
M  V30 545 1 261 3433
M  V30 546 2 262 264
M  V30 547 1 262 3434
M  V30 548 2 263 265
M  V30 549 1 263 3435
M  V30 550 1 264 265
M  V30 551 1 264 3436
M  V30 552 1 265 266
M  V30 553 1 266 3437
M  V30 554 1 267 268
M  V30 555 1 267 3438
M  V30 556 1 268 269
M  V30 557 1 268 271
M  V30 558 1 268 3439
M  V30 559 2 269 270
M  V30 560 1 269 275
M  V30 561 1 271 272
M  V30 562 1 271 273
M  V30 563 1 271 3440
M  V30 564 1 272 274
M  V30 565 1 272 3441
M  V30 566 1 272 3442
M  V30 567 1 273 3443
M  V30 568 1 273 3444
M  V30 569 1 273 3445
M  V30 570 1 274 3446
M  V30 571 1 274 3447
M  V30 572 1 274 3448
M  V30 573 1 275 276
M  V30 574 1 275 3449
M  V30 575 1 276 277
M  V30 576 1 276 279
M  V30 577 1 276 3450
M  V30 578 2 277 278
M  V30 579 1 277 283
M  V30 580 1 279 280
M  V30 581 1 279 281
M  V30 582 1 279 3451
M  V30 583 1 280 282
M  V30 584 1 280 3452
M  V30 585 1 280 3453
M  V30 586 1 281 3454
M  V30 587 1 281 3455
M  V30 588 1 281 3456
M  V30 589 1 282 3457
M  V30 590 1 282 3458
M  V30 591 1 282 3459
M  V30 592 1 283 284
M  V30 593 1 283 3460
M  V30 594 1 284 285
M  V30 595 1 284 287
M  V30 596 1 284 3461
M  V30 597 2 285 286
M  V30 598 1 285 295
M  V30 599 1 287 288
M  V30 600 1 287 3462
M  V30 601 1 287 3463
M  V30 602 2 288 289
M  V30 603 1 288 290
M  V30 604 1 289 291
M  V30 605 1 289 3464
M  V30 606 2 290 292
M  V30 607 1 290 3465
M  V30 608 2 291 293
M  V30 609 1 291 3466
M  V30 610 1 292 293
M  V30 611 1 292 3467
M  V30 612 1 293 294
M  V30 613 1 294 3468
M  V30 614 1 295 296
M  V30 615 1 295 3469
M  V30 616 1 296 297
M  V30 617 1 296 299
M  V30 618 1 296 3470
M  V30 619 2 297 298
M  V30 620 1 297 304
M  V30 621 1 299 300
M  V30 622 1 299 3471
M  V30 623 1 299 3472
M  V30 624 1 300 301
M  V30 625 1 300 3473
M  V30 626 1 300 3474
M  V30 627 1 301 302
M  V30 628 1 301 3475
M  V30 629 1 301 3476
M  V30 630 1 302 303
M  V30 631 1 302 3477
M  V30 632 1 302 3478
M  V30 633 1 303 3479
M  V30 634 1 303 3480
M  V30 635 1 303 3481
M  V30 636 1 304 305
M  V30 637 1 304 3482
M  V30 638 1 305 306
M  V30 639 1 305 308
M  V30 640 1 305 3483
M  V30 641 2 306 307
M  V30 642 1 306 312
M  V30 643 1 308 309
M  V30 644 1 308 3484
M  V30 645 1 308 3485
M  V30 646 2 309 310
M  V30 647 1 309 311
M  V30 648 1 311 3486
M  V30 649 1 311 3487
M  V30 650 1 312 313
M  V30 651 1 312 3488
M  V30 652 1 313 314
M  V30 653 1 313 3489
M  V30 654 1 313 6334
M  V30 655 2 314 315
M  V30 656 1 314 316
M  V30 657 1 316 317
M  V30 658 1 316 3490
M  V30 659 1 317 318
M  V30 660 1 317 320
M  V30 661 1 317 3491
M  V30 662 2 318 319
M  V30 663 1 318 322
M  V30 664 1 320 321
M  V30 665 1 320 3492
M  V30 666 1 320 3493
M  V30 667 1 321 3494
M  V30 668 1 322 323
M  V30 669 1 322 3495
M  V30 670 1 323 324
M  V30 671 1 323 326
M  V30 672 1 323 3496
M  V30 673 2 324 325
M  V30 674 1 324 330
M  V30 675 1 326 327
M  V30 676 1 326 3497
M  V30 677 1 326 3498
M  V30 678 1 327 328
M  V30 679 1 327 3499
M  V30 680 1 327 3500
M  V30 681 1 328 329
M  V30 682 1 329 3501
M  V30 683 1 329 3502
M  V30 684 1 329 3503
M  V30 685 1 330 331
M  V30 686 1 330 3504
M  V30 687 1 331 332
M  V30 688 1 331 3505
M  V30 689 1 331 6350
M  V30 690 2 332 333
M  V30 691 1 332 334
M  V30 692 1 334 335
M  V30 693 1 334 3506
M  V30 694 1 335 336
M  V30 695 1 335 3507
M  V30 696 1 335 6368
M  V30 697 2 336 337
M  V30 698 1 336 338
M  V30 699 1 338 339
M  V30 700 1 338 3508
M  V30 701 1 339 340
M  V30 702 1 339 3509
M  V30 703 1 339 3510
M  V30 704 2 340 341
M  V30 705 1 340 342
M  V30 706 1 342 343
M  V30 707 1 342 348
M  V30 708 1 343 344
M  V30 709 1 343 346
M  V30 710 1 343 3511
M  V30 711 2 344 345
M  V30 712 1 344 349
M  V30 713 1 346 347
M  V30 714 1 346 3512
M  V30 715 1 346 3513
M  V30 716 1 347 348
M  V30 717 1 347 3514
M  V30 718 1 347 3515
M  V30 719 1 348 3516
M  V30 720 1 348 3517
M  V30 721 1 349 350
M  V30 722 1 349 3518
M  V30 723 1 350 351
M  V30 724 1 350 353
M  V30 725 1 350 3519
M  V30 726 2 351 352
M  V30 727 1 351 357
M  V30 728 1 353 354
M  V30 729 1 353 3520
M  V30 730 1 353 3521
M  V30 731 2 354 355
M  V30 732 1 354 356
M  V30 733 1 356 3522
M  V30 734 1 356 3523
M  V30 735 1 357 358
M  V30 736 1 357 3524
M  V30 737 1 358 359
M  V30 738 1 358 361
M  V30 739 1 358 3525
M  V30 740 2 359 360
M  V30 741 1 359 365
M  V30 742 1 361 362
M  V30 743 1 361 363
M  V30 744 1 361 3526
M  V30 745 1 362 364
M  V30 746 1 362 3527
M  V30 747 1 362 3528
M  V30 748 1 363 3529
M  V30 749 1 363 3530
M  V30 750 1 363 3531
M  V30 751 1 364 3532
M  V30 752 1 364 3533
M  V30 753 1 364 3534
M  V30 754 1 365 366
M  V30 755 1 365 3535
M  V30 756 1 366 367
M  V30 757 1 366 369
M  V30 758 1 366 3536
M  V30 759 2 367 368
M  V30 760 1 367 373
M  V30 761 1 369 370
M  V30 762 1 369 3537
M  V30 763 1 369 3538
M  V30 764 1 370 371
M  V30 765 1 370 372
M  V30 766 1 370 3539
M  V30 767 1 371 3540
M  V30 768 1 371 3541
M  V30 769 1 371 3542
M  V30 770 1 372 3543
M  V30 771 1 372 3544
M  V30 772 1 372 3545
M  V30 773 1 373 374
M  V30 774 1 373 3546
M  V30 775 1 374 375
M  V30 776 1 374 377
M  V30 777 1 374 3547
M  V30 778 2 375 376
M  V30 779 1 375 381
M  V30 780 1 377 378
M  V30 781 1 377 379
M  V30 782 1 377 3548
M  V30 783 1 378 380
M  V30 784 1 378 3549
M  V30 785 1 378 3550
M  V30 786 1 379 3551
M  V30 787 1 379 3552
M  V30 788 1 379 3553
M  V30 789 1 380 3554
M  V30 790 1 380 3555
M  V30 791 1 380 3556
M  V30 792 1 381 382
M  V30 793 1 381 3557
M  V30 794 1 382 383
M  V30 795 1 382 385
M  V30 796 1 382 3558
M  V30 797 2 383 384
M  V30 798 1 383 386
M  V30 799 1 385 3559
M  V30 800 1 385 3560
M  V30 801 1 385 3561
M  V30 802 1 386 387
M  V30 803 1 386 3562
M  V30 804 1 387 388
M  V30 805 1 387 390
M  V30 806 1 387 3563
M  V30 807 2 388 389
M  V30 808 1 388 392
M  V30 809 1 390 391
M  V30 810 1 390 3564
M  V30 811 1 390 3565
M  V30 812 1 391 3566
M  V30 813 1 392 393
M  V30 814 1 392 3567
M  V30 815 1 393 394
M  V30 816 1 393 396
M  V30 817 1 393 3568
M  V30 818 2 394 395
M  V30 819 1 394 400
M  V30 820 1 396 397
M  V30 821 1 396 3569
M  V30 822 1 396 3570
M  V30 823 1 397 398
M  V30 824 1 397 399
M  V30 825 1 397 3571
M  V30 826 1 398 3572
M  V30 827 1 398 3573
M  V30 828 1 398 3574
M  V30 829 1 399 3575
M  V30 830 1 399 3576
M  V30 831 1 399 3577
M  V30 832 1 400 401
M  V30 833 1 400 3578
M  V30 834 1 401 402
M  V30 835 1 401 404
M  V30 836 1 401 3579
M  V30 837 2 402 403
M  V30 838 1 402 405
M  V30 839 1 404 3580
M  V30 840 1 404 3581
M  V30 841 1 404 3582
M  V30 842 1 405 406
M  V30 843 1 405 3583
M  V30 844 1 406 407
M  V30 845 1 406 409
M  V30 846 1 406 3584
M  V30 847 2 407 408
M  V30 848 1 407 413
M  V30 849 1 409 410
M  V30 850 1 409 3585
M  V30 851 1 409 3586
M  V30 852 1 410 411
M  V30 853 1 410 412
M  V30 854 1 410 3587
M  V30 855 1 411 3588
M  V30 856 1 411 3589
M  V30 857 1 411 3590
M  V30 858 1 412 3591
M  V30 859 1 412 3592
M  V30 860 1 412 3593
M  V30 861 1 413 414
M  V30 862 1 413 3594
M  V30 863 1 414 415
M  V30 864 1 414 3595
M  V30 865 1 414 3596
M  V30 866 2 415 416
M  V30 867 1 415 417
M  V30 868 1 417 418
M  V30 869 1 417 3597
M  V30 870 1 418 419
M  V30 871 1 418 421
M  V30 872 1 418 3598
M  V30 873 2 419 420
M  V30 874 1 419 425
M  V30 875 1 421 422
M  V30 876 1 421 3599
M  V30 877 1 421 3600
M  V30 878 2 422 423
M  V30 879 1 422 424
M  V30 880 1 424 6729
M  V30 881 1 425 426
M  V30 882 1 425 3601
M  V30 883 1 426 427
M  V30 884 1 426 429
M  V30 885 1 426 3602
M  V30 886 2 427 428
M  V30 887 1 427 433
M  V30 888 1 429 430
M  V30 889 1 429 3603
M  V30 890 1 429 3604
M  V30 891 1 430 431
M  V30 892 1 430 432
M  V30 893 1 430 3605
M  V30 894 1 431 3606
M  V30 895 1 431 3607
M  V30 896 1 431 3608
M  V30 897 1 432 3609
M  V30 898 1 432 3610
M  V30 899 1 432 3611
M  V30 900 1 433 434
M  V30 901 1 433 3612
M  V30 902 1 434 435
M  V30 903 1 434 437
M  V30 904 1 434 3613
M  V30 905 2 435 436
M  V30 906 1 435 441
M  V30 907 1 437 438
M  V30 908 1 437 3614
M  V30 909 1 437 3615
M  V30 910 1 438 439
M  V30 911 1 438 440
M  V30 912 1 438 3616
M  V30 913 1 439 3617
M  V30 914 1 439 3618
M  V30 915 1 439 3619
M  V30 916 1 440 3620
M  V30 917 1 440 3621
M  V30 918 1 440 3622
M  V30 919 1 441 442
M  V30 920 1 441 3623
M  V30 921 1 442 443
M  V30 922 1 442 445
M  V30 923 1 442 3624
M  V30 924 2 443 444
M  V30 925 1 443 451
M  V30 926 1 445 446
M  V30 927 1 445 3625
M  V30 928 1 445 3626
M  V30 929 1 446 447
M  V30 930 2 446 448
M  V30 931 1 447 449
M  V30 932 1 447 3627
M  V30 933 1 448 450
M  V30 934 1 448 3628
M  V30 935 2 449 450
M  V30 936 1 449 3629
M  V30 937 1 451 452
M  V30 938 1 451 3630
M  V30 939 1 452 453
M  V30 940 1 452 455
M  V30 941 1 452 3631
M  V30 942 2 453 454
M  V30 943 1 453 459
M  V30 944 1 455 456
M  V30 945 1 455 457
M  V30 946 1 455 3632
M  V30 947 1 456 458
M  V30 948 1 456 3633
M  V30 949 1 456 3634
M  V30 950 1 457 3635
M  V30 951 1 457 3636
M  V30 952 1 457 3637
M  V30 953 1 458 3638
M  V30 954 1 458 3639
M  V30 955 1 458 3640
M  V30 956 1 459 460
M  V30 957 1 459 3641
M  V30 958 1 460 461
M  V30 959 1 460 463
M  V30 960 1 460 3642
M  V30 961 2 461 462
M  V30 962 1 461 466
M  V30 963 1 463 464
M  V30 964 1 463 465
M  V30 965 1 463 3643
M  V30 966 1 464 3644
M  V30 967 1 464 3645
M  V30 968 1 464 3646
M  V30 969 1 465 3647
M  V30 970 1 465 3648
M  V30 971 1 465 3649
M  V30 972 1 466 467
M  V30 973 1 466 3650
M  V30 974 1 467 468
M  V30 975 1 467 470
M  V30 976 1 467 3651
M  V30 977 2 468 469
M  V30 978 1 468 474
M  V30 979 1 470 471
M  V30 980 1 470 472
M  V30 981 1 470 3652
M  V30 982 1 471 473
M  V30 983 1 471 3653
M  V30 984 1 471 3654
M  V30 985 1 472 3655
M  V30 986 1 472 3656
M  V30 987 1 472 3657
M  V30 988 1 473 3658
M  V30 989 1 473 3659
M  V30 990 1 473 3660
M  V30 991 1 474 475
M  V30 992 1 474 3661
M  V30 993 1 475 476
M  V30 994 1 475 478
M  V30 995 1 475 3662
M  V30 996 2 476 477
M  V30 997 1 476 482
M  V30 998 1 478 479
M  V30 999 1 478 3663
M  V30 1000 1 478 3664
M  V30 1001 2 479 480
M  V30 1002 1 479 481
M  V30 1003 1 482 483
M  V30 1004 1 482 3665
M  V30 1005 1 483 484
M  V30 1006 1 483 3666
M  V30 1007 1 483 6376
M  V30 1008 2 484 485
M  V30 1009 1 484 486
M  V30 1010 1 486 487
M  V30 1011 1 486 492
M  V30 1012 1 487 488
M  V30 1013 1 487 490
M  V30 1014 1 487 3667
M  V30 1015 2 488 489
M  V30 1016 1 488 493
M  V30 1017 1 490 491
M  V30 1018 1 490 3668
M  V30 1019 1 490 3669
M  V30 1020 1 491 492
M  V30 1021 1 491 3670
M  V30 1022 1 491 3671
M  V30 1023 1 492 3672
M  V30 1024 1 492 3673
M  V30 1025 1 493 494
M  V30 1026 1 493 3674
M  V30 1027 1 494 495
M  V30 1028 1 494 497
M  V30 1029 1 494 3675
M  V30 1030 2 495 496
M  V30 1031 1 495 501
M  V30 1032 1 497 498
M  V30 1033 1 497 499
M  V30 1034 1 497 3676
M  V30 1035 1 498 500
M  V30 1036 1 498 3677
M  V30 1037 1 498 3678
M  V30 1038 1 499 3679
M  V30 1039 1 499 3680
M  V30 1040 1 499 3681
M  V30 1041 1 500 3682
M  V30 1042 1 500 3683
M  V30 1043 1 500 3684
M  V30 1044 1 501 502
M  V30 1045 1 501 3685
M  V30 1046 1 502 503
M  V30 1047 1 502 505
M  V30 1048 1 502 3686
M  V30 1049 2 503 504
M  V30 1050 1 503 509
M  V30 1051 1 505 506
M  V30 1052 1 505 3687
M  V30 1053 1 505 3688
M  V30 1054 2 506 507
M  V30 1055 1 506 508
M  V30 1056 1 508 3689
M  V30 1057 1 508 3690
M  V30 1058 1 509 510
M  V30 1059 1 509 3691
M  V30 1060 1 510 511
M  V30 1061 1 510 513
M  V30 1062 1 510 3692
M  V30 1063 2 511 512
M  V30 1064 1 511 516
M  V30 1065 1 513 514
M  V30 1066 1 513 515
M  V30 1067 1 513 3693
M  V30 1068 1 514 3694
M  V30 1069 1 514 3695
M  V30 1070 1 514 3696
M  V30 1071 1 515 3697
M  V30 1072 1 515 3698
M  V30 1073 1 515 3699
M  V30 1074 1 516 517
M  V30 1075 1 516 3700
M  V30 1076 1 517 518
M  V30 1077 1 517 3701
M  V30 1078 1 517 6389
M  V30 1079 2 518 519
M  V30 1080 1 518 520
M  V30 1081 1 520 521
M  V30 1082 1 520 3702
M  V30 1083 1 521 522
M  V30 1084 1 521 524
M  V30 1085 1 521 3703
M  V30 1086 2 522 523
M  V30 1087 1 522 529
M  V30 1088 1 524 525
M  V30 1089 1 524 3704
M  V30 1090 1 524 3705
M  V30 1091 1 525 526
M  V30 1092 1 525 3706
M  V30 1093 1 525 3707
M  V30 1094 1 526 527
M  V30 1095 1 526 3708
M  V30 1096 1 526 3709
M  V30 1097 1 527 528
M  V30 1098 1 527 3710
M  V30 1099 1 527 3711
M  V30 1100 1 528 3712
M  V30 1101 1 528 3713
M  V30 1102 1 528 3714
M  V30 1103 1 529 530
M  V30 1104 1 529 3715
M  V30 1105 1 530 531
M  V30 1106 1 530 533
M  V30 1107 1 530 3716
M  V30 1108 2 531 532
M  V30 1109 1 531 537
M  V30 1110 1 533 534
M  V30 1111 1 533 3717
M  V30 1112 1 533 3718
M  V30 1113 1 534 535
M  V30 1114 1 534 536
M  V30 1115 1 534 3719
M  V30 1116 1 535 3720
M  V30 1117 1 535 3721
M  V30 1118 1 535 3722
M  V30 1119 1 536 3723
M  V30 1120 1 536 3724
M  V30 1121 1 536 3725
M  V30 1122 1 537 538
M  V30 1123 1 537 3726
M  V30 1124 1 538 539
M  V30 1125 1 538 541
M  V30 1126 1 538 3727
M  V30 1127 2 539 540
M  V30 1128 1 539 545
M  V30 1129 1 541 542
M  V30 1130 1 541 3728
M  V30 1131 1 541 3729
M  V30 1132 1 542 543
M  V30 1133 1 542 544
M  V30 1134 1 542 3730
M  V30 1135 1 543 3731
M  V30 1136 1 543 3732
M  V30 1137 1 543 3733
M  V30 1138 1 544 3734
M  V30 1139 1 544 3735
M  V30 1140 1 544 3736
M  V30 1141 1 545 546
M  V30 1142 1 545 3737
M  V30 1143 1 546 547
M  V30 1144 1 546 549
M  V30 1145 1 546 3738
M  V30 1146 2 547 548
M  V30 1147 1 547 550
M  V30 1148 1 549 3739
M  V30 1149 1 549 3740
M  V30 1150 1 549 3741
M  V30 1151 1 550 551
M  V30 1152 1 550 3742
M  V30 1153 1 551 552
M  V30 1154 1 551 554
M  V30 1155 1 551 3743
M  V30 1156 2 552 553
M  V30 1157 1 552 559
M  V30 1158 1 554 555
M  V30 1159 1 554 3744
M  V30 1160 1 554 3745
M  V30 1161 1 555 556
M  V30 1162 1 555 3746
M  V30 1163 1 555 3747
M  V30 1164 2 556 557
M  V30 1165 1 556 558
M  V30 1166 1 559 560
M  V30 1167 1 559 3748
M  V30 1168 1 560 561
M  V30 1169 1 560 563
M  V30 1170 1 560 3749
M  V30 1171 2 561 562
M  V30 1172 1 561 567
M  V30 1173 1 563 564
M  V30 1174 1 563 3750
M  V30 1175 1 563 3751
M  V30 1176 2 564 565
M  V30 1177 1 564 566
M  V30 1178 1 567 568
M  V30 1179 1 567 3752
M  V30 1180 1 568 569
M  V30 1181 1 568 571
M  V30 1182 1 568 3753
M  V30 1183 2 569 570
M  V30 1184 1 569 581
M  V30 1185 1 571 572
M  V30 1186 1 571 3754
M  V30 1187 1 571 3755
M  V30 1188 2 572 573
M  V30 1189 1 572 574
M  V30 1190 1 573 575
M  V30 1191 1 573 3756
M  V30 1192 2 574 576
M  V30 1193 1 574 577
M  V30 1194 1 575 576
M  V30 1195 1 575 3757
M  V30 1196 1 576 578
M  V30 1197 2 577 579
M  V30 1198 1 577 3758
M  V30 1199 2 578 580
M  V30 1200 1 578 3759
M  V30 1201 1 579 580
M  V30 1202 1 579 3760
M  V30 1203 1 580 3761
M  V30 1204 1 581 582
M  V30 1205 1 581 587
M  V30 1206 1 582 583
M  V30 1207 1 582 585
M  V30 1208 1 582 3762
M  V30 1209 2 583 584
M  V30 1210 1 583 588
M  V30 1211 1 585 586
M  V30 1212 1 585 3763
M  V30 1213 1 585 3764
M  V30 1214 1 586 587
M  V30 1215 1 586 3765
M  V30 1216 1 586 3766
M  V30 1217 1 587 3767
M  V30 1218 1 587 3768
M  V30 1219 1 588 589
M  V30 1220 1 588 3769
M  V30 1221 1 589 590
M  V30 1222 1 589 592
M  V30 1223 1 589 3770
M  V30 1224 2 590 591
M  V30 1225 1 590 599
M  V30 1226 1 592 593
M  V30 1227 1 592 3771
M  V30 1228 1 592 3772
M  V30 1229 2 593 594
M  V30 1230 1 593 595
M  V30 1231 1 594 596
M  V30 1232 1 594 3773
M  V30 1233 2 595 597
M  V30 1234 1 595 3774
M  V30 1235 2 596 598
M  V30 1236 1 596 3775
M  V30 1237 1 597 598
M  V30 1238 1 597 3776
M  V30 1239 1 598 3777
M  V30 1240 1 599 600
M  V30 1241 1 599 3778
M  V30 1242 1 600 601
M  V30 1243 1 600 3779
M  V30 1244 1 600 3780
M  V30 1245 2 601 602
M  V30 1246 1 601 603
M  V30 1247 1 603 604
M  V30 1248 1 603 3781
M  V30 1249 1 604 605
M  V30 1250 1 604 607
M  V30 1251 1 604 3782
M  V30 1252 2 605 606
M  V30 1253 1 605 608
M  V30 1254 1 607 3783
M  V30 1255 1 607 3784
M  V30 1256 1 607 3785
M  V30 1257 1 608 609
M  V30 1258 1 608 3786
M  V30 1259 1 609 610
M  V30 1260 1 609 612
M  V30 1261 1 609 3787
M  V30 1262 2 610 611
M  V30 1263 1 610 617
M  V30 1264 1 612 613
M  V30 1265 1 612 3788
M  V30 1266 1 612 3789
M  V30 1267 1 613 614
M  V30 1268 1 613 3790
M  V30 1269 1 613 3791
M  V30 1270 2 614 615
M  V30 1271 1 614 616
M  V30 1272 1 617 618
M  V30 1273 1 617 3792
M  V30 1274 1 618 619
M  V30 1275 1 618 621
M  V30 1276 1 618 3793
M  V30 1277 2 619 620
M  V30 1278 1 619 625
M  V30 1279 1 621 622
M  V30 1280 1 621 3794
M  V30 1281 1 621 3795
M  V30 1282 1 622 623
M  V30 1283 1 622 3796
M  V30 1284 1 622 3797
M  V30 1285 1 623 624
M  V30 1286 1 624 3798
M  V30 1287 1 624 3799
M  V30 1288 1 624 3800
M  V30 1289 1 625 626
M  V30 1290 1 625 3801
M  V30 1291 1 626 627
M  V30 1292 1 626 629
M  V30 1293 1 626 3802
M  V30 1294 2 627 628
M  V30 1295 1 627 631
M  V30 1296 1 629 630
M  V30 1297 1 629 3803
M  V30 1298 1 629 3804
M  V30 1299 1 630 1225
M  V30 1300 1 631 632
M  V30 1301 1 631 3805
M  V30 1302 1 632 633
M  V30 1303 1 632 635
M  V30 1304 1 632 3806
M  V30 1305 2 633 634
M  V30 1306 1 633 640
M  V30 1307 1 635 636
M  V30 1308 1 635 3807
M  V30 1309 1 635 3808
M  V30 1310 1 636 637
M  V30 1311 1 636 3809
M  V30 1312 1 636 3810
M  V30 1313 1 637 638
M  V30 1314 1 637 3811
M  V30 1315 1 637 3812
M  V30 1316 1 638 639
M  V30 1317 1 638 3813
M  V30 1318 1 638 3814
M  V30 1319 1 639 3815
M  V30 1320 1 639 3816
M  V30 1321 1 639 3817
M  V30 1322 1 640 641
M  V30 1323 1 640 3818
M  V30 1324 1 641 642
M  V30 1325 1 641 644
M  V30 1326 1 641 3819
M  V30 1327 2 642 643
M  V30 1328 1 642 648
M  V30 1329 1 644 645
M  V30 1330 1 644 3820
M  V30 1331 1 644 3821
M  V30 1332 1 645 646
M  V30 1333 1 645 647
M  V30 1334 1 645 3822
M  V30 1335 1 646 3823
M  V30 1336 1 646 3824
M  V30 1337 1 646 3825
M  V30 1338 1 647 3826
M  V30 1339 1 647 3827
M  V30 1340 1 647 3828
M  V30 1341 1 648 649
M  V30 1342 1 648 3829
M  V30 1343 1 649 650
M  V30 1344 1 649 652
M  V30 1345 1 649 3830
M  V30 1346 2 650 651
M  V30 1347 1 650 655
M  V30 1348 1 652 653
M  V30 1349 1 652 654
M  V30 1350 1 652 3831
M  V30 1351 1 653 3832
M  V30 1352 1 653 3833
M  V30 1353 1 653 3834
M  V30 1354 1 654 3835
M  V30 1355 1 654 3836
M  V30 1356 1 654 3837
M  V30 1357 1 655 656
M  V30 1358 1 655 661
M  V30 1359 1 656 657
M  V30 1360 1 656 659
M  V30 1361 1 656 3838
M  V30 1362 2 657 658
M  V30 1363 1 657 662
M  V30 1364 1 659 660
M  V30 1365 1 659 3839
M  V30 1366 1 659 3840
M  V30 1367 1 660 661
M  V30 1368 1 660 3841
M  V30 1369 1 660 3842
M  V30 1370 1 661 3843
M  V30 1371 1 661 3844
M  V30 1372 1 662 663
M  V30 1373 1 662 3845
M  V30 1374 1 663 664
M  V30 1375 1 663 666
M  V30 1376 1 663 3846
M  V30 1377 2 664 665
M  V30 1378 1 664 673
M  V30 1379 1 666 667
M  V30 1380 1 666 3847
M  V30 1381 1 666 3848
M  V30 1382 2 667 668
M  V30 1383 1 667 669
M  V30 1384 1 668 670
M  V30 1385 1 668 3849
M  V30 1386 2 669 671
M  V30 1387 1 669 3850
M  V30 1388 2 670 672
M  V30 1389 1 670 3851
M  V30 1390 1 671 672
M  V30 1391 1 671 3852
M  V30 1392 1 672 3853
M  V30 1393 1 673 674
M  V30 1394 1 673 3854
M  V30 1395 1 674 675
M  V30 1396 1 674 677
M  V30 1397 1 674 3855
M  V30 1398 2 675 676
M  V30 1399 1 675 681
M  V30 1400 1 677 678
M  V30 1401 1 677 679
M  V30 1402 1 677 3856
M  V30 1403 1 678 680
M  V30 1404 1 678 3857
M  V30 1405 1 678 3858
M  V30 1406 1 679 3859
M  V30 1407 1 679 3860
M  V30 1408 1 679 3861
M  V30 1409 1 680 3862
M  V30 1410 1 680 3863
M  V30 1411 1 680 3864
M  V30 1412 1 681 682
M  V30 1413 1 681 3865
M  V30 1414 1 682 683
M  V30 1415 1 682 685
M  V30 1416 1 682 3866
M  V30 1417 2 683 684
M  V30 1418 1 683 690
M  V30 1419 1 685 686
M  V30 1420 1 685 3867
M  V30 1421 1 685 3868
M  V30 1422 1 686 687
M  V30 1423 1 686 3869
M  V30 1424 1 686 3870
M  V30 1425 2 687 688
M  V30 1426 1 687 689
M  V30 1427 1 689 3871
M  V30 1428 1 689 3872
M  V30 1429 1 690 691
M  V30 1430 1 690 3873
M  V30 1431 1 691 692
M  V30 1432 1 691 694
M  V30 1433 1 691 3874
M  V30 1434 2 692 693
M  V30 1435 1 692 699
M  V30 1436 1 694 695
M  V30 1437 1 694 3875
M  V30 1438 1 694 3876
M  V30 1439 1 695 696
M  V30 1440 1 695 3877
M  V30 1441 1 695 3878
M  V30 1442 1 696 697
M  V30 1443 1 696 3879
M  V30 1444 1 696 3880
M  V30 1445 1 697 698
M  V30 1446 1 697 3881
M  V30 1447 1 697 3882
M  V30 1448 1 698 3883
M  V30 1449 1 698 3884
M  V30 1450 1 698 3885
M  V30 1451 1 699 700
M  V30 1452 1 699 3886
M  V30 1453 1 700 701
M  V30 1454 1 700 703
M  V30 1455 1 700 3887
M  V30 1456 2 701 702
M  V30 1457 1 701 704
M  V30 1458 1 703 3888
M  V30 1459 1 703 3889
M  V30 1460 1 703 3890
M  V30 1461 1 704 705
M  V30 1462 1 704 3891
M  V30 1463 1 705 706
M  V30 1464 1 705 708
M  V30 1465 1 705 3892
M  V30 1466 2 706 707
M  V30 1467 1 706 710
M  V30 1468 1 708 709
M  V30 1469 1 708 3893
M  V30 1470 1 708 3894
M  V30 1471 1 709 3895
M  V30 1472 1 710 711
M  V30 1473 1 710 3896
M  V30 1474 1 711 712
M  V30 1475 1 711 714
M  V30 1476 1 711 3897
M  V30 1477 2 712 713
M  V30 1478 1 712 717
M  V30 1479 1 714 715
M  V30 1480 1 714 716
M  V30 1481 1 714 3898
M  V30 1482 1 715 3899
M  V30 1483 1 715 3900
M  V30 1484 1 715 3901
M  V30 1485 1 716 3902
M  V30 1486 1 716 3903
M  V30 1487 1 716 3904
M  V30 1488 1 717 718
M  V30 1489 1 717 3905
M  V30 1490 1 718 719
M  V30 1491 1 718 3906
M  V30 1492 1 718 3907
M  V30 1493 2 719 720
M  V30 1494 1 719 721
M  V30 1495 1 721 722
M  V30 1496 1 721 3908
M  V30 1497 1 722 723
M  V30 1498 1 722 725
M  V30 1499 1 722 3909
M  V30 1500 2 723 724
M  V30 1501 1 723 729
M  V30 1502 1 725 726
M  V30 1503 1 725 727
M  V30 1504 1 725 3910
M  V30 1505 1 726 728
M  V30 1506 1 726 3911
M  V30 1507 1 726 3912
M  V30 1508 1 727 3913
M  V30 1509 1 727 3914
M  V30 1510 1 727 3915
M  V30 1511 1 728 3916
M  V30 1512 1 728 3917
M  V30 1513 1 728 3918
M  V30 1514 1 729 730
M  V30 1515 1 729 3919
M  V30 1516 1 730 731
M  V30 1517 1 730 733
M  V30 1518 1 730 3920
M  V30 1519 2 731 732
M  V30 1520 1 731 736
M  V30 1521 1 733 734
M  V30 1522 1 733 735
M  V30 1523 1 733 3921
M  V30 1524 1 734 3922
M  V30 1525 1 735 3923
M  V30 1526 1 735 3924
M  V30 1527 1 735 3925
M  V30 1528 1 736 737
M  V30 1529 1 736 3926
M  V30 1530 1 737 738
M  V30 1531 1 737 740
M  V30 1532 1 737 3927
M  V30 1533 2 738 739
M  V30 1534 1 738 743
M  V30 1535 1 740 741
M  V30 1536 1 740 742
M  V30 1537 1 740 3928
M  V30 1538 1 741 3929
M  V30 1539 1 741 3930
M  V30 1540 1 741 3931
M  V30 1541 1 742 3932
M  V30 1542 1 742 3933
M  V30 1543 1 742 3934
M  V30 1544 1 743 744
M  V30 1545 1 743 3935
M  V30 1546 1 744 745
M  V30 1547 1 744 747
M  V30 1548 1 744 3936
M  V30 1549 2 745 746
M  V30 1550 1 745 751
M  V30 1551 1 747 748
M  V30 1552 1 747 3937
M  V30 1553 1 747 3938
M  V30 1554 1 748 749
M  V30 1555 1 748 750
M  V30 1556 1 748 3939
M  V30 1557 1 749 3940
M  V30 1558 1 749 3941
M  V30 1559 1 749 3942
M  V30 1560 1 750 3943
M  V30 1561 1 750 3944
M  V30 1562 1 750 3945
M  V30 1563 1 751 752
M  V30 1564 1 751 3946
M  V30 1565 1 752 753
M  V30 1566 1 752 755
M  V30 1567 1 752 3947
M  V30 1568 2 753 754
M  V30 1569 1 753 757
M  V30 1570 1 755 756
M  V30 1571 1 755 3948
M  V30 1572 1 755 3949
M  V30 1573 1 756 3950
M  V30 1574 1 757 758
M  V30 1575 1 757 3951
M  V30 1576 1 758 759
M  V30 1577 1 758 761
M  V30 1578 1 758 3952
M  V30 1579 2 759 760
M  V30 1580 1 759 765
M  V30 1581 1 761 762
M  V30 1582 1 761 3953
M  V30 1583 1 761 3954
M  V30 1584 1 762 763
M  V30 1585 1 762 764
M  V30 1586 1 762 3955
M  V30 1587 1 763 3956
M  V30 1588 1 763 3957
M  V30 1589 1 763 3958
M  V30 1590 1 764 3959
M  V30 1591 1 764 3960
M  V30 1592 1 764 3961
M  V30 1593 1 765 766
M  V30 1594 1 765 3962
M  V30 1595 1 766 767
M  V30 1596 1 766 769
M  V30 1597 1 766 3963
M  V30 1598 2 767 768
M  V30 1599 1 767 771
M  V30 1600 1 769 770
M  V30 1601 1 769 3964
M  V30 1602 1 769 3965
M  V30 1603 1 770 3966
M  V30 1604 1 771 772
M  V30 1605 1 771 3967
M  V30 1606 1 772 773
M  V30 1607 1 772 775
M  V30 1608 1 772 3968
M  V30 1609 2 773 774
M  V30 1610 1 773 776
M  V30 1611 1 775 3969
M  V30 1612 1 775 3970
M  V30 1613 1 775 3971
M  V30 1614 1 776 777
M  V30 1615 1 776 3972
M  V30 1616 1 777 778
M  V30 1617 1 777 780
M  V30 1618 1 777 3973
M  V30 1619 2 778 779
M  V30 1620 1 778 784
M  V30 1621 1 780 781
M  V30 1622 1 780 3974
M  V30 1623 1 780 3975
M  V30 1624 1 781 782
M  V30 1625 1 781 783
M  V30 1626 1 781 3976
M  V30 1627 1 782 3977
M  V30 1628 1 782 3978
M  V30 1629 1 782 3979
M  V30 1630 1 783 3980
M  V30 1631 1 783 3981
M  V30 1632 1 783 3982
M  V30 1633 1 784 785
M  V30 1634 1 784 3983
M  V30 1635 1 785 786
M  V30 1636 1 785 788
M  V30 1637 1 785 3984
M  V30 1638 2 786 787
M  V30 1639 1 786 790
M  V30 1640 1 788 789
M  V30 1641 1 788 3985
M  V30 1642 1 788 3986
M  V30 1643 1 789 3987
M  V30 1644 1 790 791
M  V30 1645 1 790 3988
M  V30 1646 1 791 792
M  V30 1647 1 791 794
M  V30 1648 1 791 3989
M  V30 1649 2 792 793
M  V30 1650 1 792 798
M  V30 1651 1 794 795
M  V30 1652 1 794 796
M  V30 1653 1 794 3990
M  V30 1654 1 795 797
M  V30 1655 1 795 3991
M  V30 1656 1 795 3992
M  V30 1657 1 796 3993
M  V30 1658 1 796 3994
M  V30 1659 1 796 3995
M  V30 1660 1 797 3996
M  V30 1661 1 797 3997
M  V30 1662 1 797 3998
M  V30 1663 1 798 799
M  V30 1664 1 798 3999
M  V30 1665 1 799 800
M  V30 1666 1 799 802
M  V30 1667 1 799 4000
M  V30 1668 2 800 801
M  V30 1669 1 800 806
M  V30 1670 1 802 803
M  V30 1671 1 802 4001
M  V30 1672 1 802 4002
M  V30 1673 2 803 804
M  V30 1674 1 803 805
M  V30 1675 1 806 807
M  V30 1676 1 806 4003
M  V30 1677 1 807 808
M  V30 1678 1 807 810
M  V30 1679 1 807 4004
M  V30 1680 2 808 809
M  V30 1681 1 808 817
M  V30 1682 1 810 811
M  V30 1683 1 810 4005
M  V30 1684 1 810 4006
M  V30 1685 1 811 812
M  V30 1686 1 811 4007
M  V30 1687 1 811 4008
M  V30 1688 1 812 813
M  V30 1689 1 812 4009
M  V30 1690 1 812 4010
M  V30 1691 1 813 814
M  V30 1692 1 813 4011
M  V30 1693 1 814 815
M  V30 1694 2 814 816
M  V30 1695 1 815 4012
M  V30 1696 1 815 4013
M  V30 1697 1 816 4014
M  V30 1698 1 816 4015
M  V30 1699 1 817 818
M  V30 1700 1 817 4016
M  V30 1701 1 818 819
M  V30 1702 1 818 821
M  V30 1703 1 818 4017
M  V30 1704 2 819 820
M  V30 1705 1 819 829
M  V30 1706 1 821 822
M  V30 1707 1 821 4018
M  V30 1708 1 821 4019
M  V30 1709 2 822 823
M  V30 1710 1 822 824
M  V30 1711 1 823 825
M  V30 1712 1 823 4020
M  V30 1713 2 824 826
M  V30 1714 1 824 4021
M  V30 1715 2 825 827
M  V30 1716 1 825 4022
M  V30 1717 1 826 827
M  V30 1718 1 826 4023
M  V30 1719 1 827 828
M  V30 1720 1 828 4024
M  V30 1721 1 829 830
M  V30 1722 1 829 4025
M  V30 1723 1 830 831
M  V30 1724 1 830 833
M  V30 1725 1 830 4026
M  V30 1726 2 831 832
M  V30 1727 1 831 840
M  V30 1728 1 833 834
M  V30 1729 1 833 4027
M  V30 1730 1 833 4028
M  V30 1731 1 834 835
M  V30 1732 1 834 4029
M  V30 1733 1 834 4030
M  V30 1734 1 835 836
M  V30 1735 1 835 4031
M  V30 1736 1 835 4032
M  V30 1737 1 836 837
M  V30 1738 1 836 4033
M  V30 1739 1 837 838
M  V30 1740 2 837 839
M  V30 1741 1 838 4034
M  V30 1742 1 838 4035
M  V30 1743 1 839 4036
M  V30 1744 1 839 4037
M  V30 1745 1 840 841
M  V30 1746 1 840 4038
M  V30 1747 1 841 842
M  V30 1748 1 841 844
M  V30 1749 1 841 4039
M  V30 1750 2 842 843
M  V30 1751 1 842 845
M  V30 1752 1 844 4040
M  V30 1753 1 844 4041
M  V30 1754 1 844 4042
M  V30 1755 1 845 846
M  V30 1756 1 845 4043
M  V30 1757 1 846 847
M  V30 1758 1 846 849
M  V30 1759 1 846 4044
M  V30 1760 2 847 848
M  V30 1761 1 847 852
M  V30 1762 1 849 850
M  V30 1763 1 849 851
M  V30 1764 1 849 4045
M  V30 1765 1 850 4046
M  V30 1766 1 850 4047
M  V30 1767 1 850 4048
M  V30 1768 1 851 4049
M  V30 1769 1 851 4050
M  V30 1770 1 851 4051
M  V30 1771 1 852 853
M  V30 1772 1 852 4052
M  V30 1773 1 853 854
M  V30 1774 1 853 856
M  V30 1775 1 853 4053
M  V30 1776 2 854 855
M  V30 1777 1 854 857
M  V30 1778 1 856 4054
M  V30 1779 1 856 4055
M  V30 1780 1 856 4056
M  V30 1781 1 857 858
M  V30 1782 1 857 4057
M  V30 1783 1 858 859
M  V30 1784 1 858 861
M  V30 1785 1 858 4058
M  V30 1786 2 859 860
M  V30 1787 1 859 863
M  V30 1788 1 861 862
M  V30 1789 1 861 4059
M  V30 1790 1 861 4060
M  V30 1791 1 862 4061
M  V30 1792 1 863 864
M  V30 1793 1 863 4062
M  V30 1794 1 864 865
M  V30 1795 1 864 867
M  V30 1796 1 864 4063
M  V30 1797 2 865 866
M  V30 1798 1 865 877
M  V30 1799 1 867 868
M  V30 1800 1 867 4064
M  V30 1801 1 867 4065
M  V30 1802 2 868 869
M  V30 1803 1 868 870
M  V30 1804 1 869 871
M  V30 1805 1 869 4066
M  V30 1806 2 870 872
M  V30 1807 1 870 873
M  V30 1808 1 871 872
M  V30 1809 1 871 4067
M  V30 1810 1 872 874
M  V30 1811 2 873 875
M  V30 1812 1 873 4068
M  V30 1813 2 874 876
M  V30 1814 1 874 4069
M  V30 1815 1 875 876
M  V30 1816 1 875 4070
M  V30 1817 1 876 4071
M  V30 1818 1 877 878
M  V30 1819 1 877 4072
M  V30 1820 1 878 879
M  V30 1821 1 878 881
M  V30 1822 1 878 4073
M  V30 1823 2 879 880
M  V30 1824 1 879 883
M  V30 1825 1 881 882
M  V30 1826 1 881 4074
M  V30 1827 1 881 4075
M  V30 1828 1 882 4076
M  V30 1829 1 883 884
M  V30 1830 1 883 4077
M  V30 1831 1 884 885
M  V30 1832 1 884 887
M  V30 1833 1 884 4078
M  V30 1834 2 885 886
M  V30 1835 1 885 894
M  V30 1836 1 887 888
M  V30 1837 1 887 4079
M  V30 1838 1 887 4080
M  V30 1839 1 888 889
M  V30 1840 1 888 4081
M  V30 1841 1 888 4082
M  V30 1842 1 889 890
M  V30 1843 1 889 4083
M  V30 1844 1 889 4084
M  V30 1845 1 890 891
M  V30 1846 1 890 4085
M  V30 1847 1 891 892
M  V30 1848 2 891 893
M  V30 1849 1 892 4086
M  V30 1850 1 892 4087
M  V30 1851 1 893 4088
M  V30 1852 1 893 4089
M  V30 1853 1 894 895
M  V30 1854 1 894 4090
M  V30 1855 1 895 896
M  V30 1856 1 895 898
M  V30 1857 1 895 4091
M  V30 1858 2 896 897
M  V30 1859 1 896 902
M  V30 1860 1 898 899
M  V30 1861 1 898 900
M  V30 1862 1 898 4092
M  V30 1863 1 899 901
M  V30 1864 1 899 4093
M  V30 1865 1 899 4094
M  V30 1866 1 900 4095
M  V30 1867 1 900 4096
M  V30 1868 1 900 4097
M  V30 1869 1 901 4098
M  V30 1870 1 901 4099
M  V30 1871 1 901 4100
M  V30 1872 1 902 903
M  V30 1873 1 902 4101
M  V30 1874 1 903 904
M  V30 1875 1 903 906
M  V30 1876 1 903 4102
M  V30 1877 2 904 905
M  V30 1878 1 904 911
M  V30 1879 1 906 907
M  V30 1880 1 906 4103
M  V30 1881 1 906 4104
M  V30 1882 1 907 908
M  V30 1883 1 907 4105
M  V30 1884 1 907 4106
M  V30 1885 1 908 909
M  V30 1886 1 908 4107
M  V30 1887 1 908 4108
M  V30 1888 1 909 910
M  V30 1889 1 909 4109
M  V30 1890 1 909 4110
M  V30 1891 1 910 4111
M  V30 1892 1 910 4112
M  V30 1893 1 910 4113
M  V30 1894 1 911 912
M  V30 1895 1 911 4114
M  V30 1896 1 912 913
M  V30 1897 1 912 4115
M  V30 1898 1 912 4116
M  V30 1899 2 913 914
M  V30 1900 1 913 915
M  V30 1901 1 915 916
M  V30 1902 1 915 4117
M  V30 1903 1 916 917
M  V30 1904 1 916 4118
M  V30 1905 1 916 6404
M  V30 1906 2 917 918
M  V30 1907 1 917 919
M  V30 1908 1 919 920
M  V30 1909 1 919 4119
M  V30 1910 1 920 921
M  V30 1911 1 920 4120
M  V30 1912 1 920 4121
M  V30 1913 2 921 922
M  V30 1914 1 921 923
M  V30 1915 1 923 924
M  V30 1916 1 923 4122
M  V30 1917 1 924 925
M  V30 1918 1 924 927
M  V30 1919 1 924 4123
M  V30 1920 2 925 926
M  V30 1921 1 925 930
M  V30 1922 1 927 928
M  V30 1923 1 927 929
M  V30 1924 1 927 4124
M  V30 1925 1 928 4125
M  V30 1926 1 928 4126
M  V30 1927 1 928 4127
M  V30 1928 1 929 4128
M  V30 1929 1 929 4129
M  V30 1930 1 929 4130
M  V30 1931 1 930 931
M  V30 1932 1 930 936
M  V30 1933 1 931 932
M  V30 1934 1 931 934
M  V30 1935 1 931 4131
M  V30 1936 2 932 933
M  V30 1937 1 932 937
M  V30 1938 1 934 935
M  V30 1939 1 934 4132
M  V30 1940 1 934 4133
M  V30 1941 1 935 936
M  V30 1942 1 935 4134
M  V30 1943 1 935 4135
M  V30 1944 1 936 4136
M  V30 1945 1 936 4137
M  V30 1946 1 937 938
M  V30 1947 1 937 4138
M  V30 1948 1 938 939
M  V30 1949 1 938 941
M  V30 1950 1 938 4139
M  V30 1951 2 939 940
M  V30 1952 1 939 946
M  V30 1953 1 941 942
M  V30 1954 1 941 4140
M  V30 1955 1 941 4141
M  V30 1956 1 942 943
M  V30 1957 1 942 4142
M  V30 1958 1 942 4143
M  V30 1959 1 943 944
M  V30 1960 1 943 4144
M  V30 1961 1 943 4145
M  V30 1962 1 944 945
M  V30 1963 1 944 4146
M  V30 1964 1 944 4147
M  V30 1965 1 945 4148
M  V30 1966 1 945 4149
M  V30 1967 1 945 4150
M  V30 1968 1 946 947
M  V30 1969 1 946 4151
M  V30 1970 1 947 948
M  V30 1971 1 947 950
M  V30 1972 1 947 4152
M  V30 1973 2 948 949
M  V30 1974 1 948 960
M  V30 1975 1 950 951
M  V30 1976 1 950 4153
M  V30 1977 1 950 4154
M  V30 1978 2 951 952
M  V30 1979 1 951 953
M  V30 1980 1 952 954
M  V30 1981 1 952 4155
M  V30 1982 2 953 955
M  V30 1983 1 953 956
M  V30 1984 1 954 955
M  V30 1985 1 954 4156
M  V30 1986 1 955 957
M  V30 1987 2 956 958
M  V30 1988 1 956 4157
M  V30 1989 2 957 959
M  V30 1990 1 957 4158
M  V30 1991 1 958 959
M  V30 1992 1 958 4159
M  V30 1993 1 959 4160
M  V30 1994 1 960 961
M  V30 1995 1 960 4161
M  V30 1996 1 961 962
M  V30 1997 1 961 964
M  V30 1998 1 961 4162
M  V30 1999 2 962 963
M  V30 2000 1 962 967
M  V30 2001 1 964 965
M  V30 2002 1 964 966
M  V30 2003 1 964 4163
M  V30 2004 1 965 4164
M  V30 2005 1 966 4165
M  V30 2006 1 966 4166
M  V30 2007 1 966 4167
M  V30 2008 1 967 968
M  V30 2009 1 967 4168
M  V30 2010 1 968 969
M  V30 2011 1 968 971
M  V30 2012 1 968 4169
M  V30 2013 2 969 970
M  V30 2014 1 969 972
M  V30 2015 1 971 4170
M  V30 2016 1 971 4171
M  V30 2017 1 971 4172
M  V30 2018 1 972 973
M  V30 2019 1 972 4173
M  V30 2020 1 973 974
M  V30 2021 1 973 976
M  V30 2022 1 973 4174
M  V30 2023 2 974 975
M  V30 2024 1 974 979
M  V30 2025 1 976 977
M  V30 2026 1 976 978
M  V30 2027 1 976 4175
M  V30 2028 1 977 4176
M  V30 2029 1 977 4177
M  V30 2030 1 977 4178
M  V30 2031 1 978 4179
M  V30 2032 1 978 4180
M  V30 2033 1 978 4181
M  V30 2034 1 979 980
M  V30 2035 1 979 4182
M  V30 2036 1 980 981
M  V30 2037 1 980 983
M  V30 2038 1 980 4183
M  V30 2039 2 981 982
M  V30 2040 1 981 988
M  V30 2041 1 983 984
M  V30 2042 1 983 4184
M  V30 2043 1 983 4185
M  V30 2044 1 984 985
M  V30 2045 1 984 4186
M  V30 2046 1 984 4187
M  V30 2047 2 985 986
M  V30 2048 1 985 987
M  V30 2049 1 987 6730
M  V30 2050 1 988 989
M  V30 2051 1 988 4188
M  V30 2052 1 989 990
M  V30 2053 1 989 992
M  V30 2054 1 989 4189
M  V30 2055 2 990 991
M  V30 2056 1 990 996
M  V30 2057 1 992 993
M  V30 2058 1 992 994
M  V30 2059 1 992 4190
M  V30 2060 1 993 995
M  V30 2061 1 993 4191
M  V30 2062 1 993 4192
M  V30 2063 1 994 4193
M  V30 2064 1 994 4194
M  V30 2065 1 994 4195
M  V30 2066 1 995 4196
M  V30 2067 1 995 4197
M  V30 2068 1 995 4198
M  V30 2069 1 996 997
M  V30 2070 1 996 4199
M  V30 2071 1 997 998
M  V30 2072 1 997 1000
M  V30 2073 1 997 4200
M  V30 2074 2 998 999
M  V30 2075 1 998 1003
M  V30 2076 1 1000 1001
M  V30 2077 1 1000 1002
M  V30 2078 1 1000 4201
M  V30 2079 1 1001 4202
M  V30 2080 1 1001 4203
M  V30 2081 1 1001 4204
M  V30 2082 1 1002 4205
M  V30 2083 1 1002 4206
M  V30 2084 1 1002 4207
M  V30 2085 1 1003 1004
M  V30 2086 1 1003 4208
M  V30 2087 1 1004 1005
M  V30 2088 1 1004 1007
M  V30 2089 1 1004 4209
M  V30 2090 2 1005 1006
M  V30 2091 1 1005 1011
M  V30 2092 1 1007 1008
M  V30 2093 1 1007 4210
M  V30 2094 1 1007 4211
M  V30 2095 1 1008 1009
M  V30 2096 1 1008 1010
M  V30 2097 1 1008 4212
M  V30 2098 1 1009 4213
M  V30 2099 1 1009 4214
M  V30 2100 1 1009 4215
M  V30 2101 1 1010 4216
M  V30 2102 1 1010 4217
M  V30 2103 1 1010 4218
M  V30 2104 1 1011 1012
M  V30 2105 1 1011 4219
M  V30 2106 1 1012 1013
M  V30 2107 1 1012 1015
M  V30 2108 1 1012 4220
M  V30 2109 2 1013 1014
M  V30 2110 1 1013 1019
M  V30 2111 1 1015 1016
M  V30 2112 1 1015 1017
M  V30 2113 1 1015 4221
M  V30 2114 1 1016 1018
M  V30 2115 1 1016 4222
M  V30 2116 1 1016 4223
M  V30 2117 1 1017 4224
M  V30 2118 1 1017 4225
M  V30 2119 1 1017 4226
M  V30 2120 1 1018 4227
M  V30 2121 1 1018 4228
M  V30 2122 1 1018 4229
M  V30 2123 1 1019 1020
M  V30 2124 1 1019 4230
M  V30 2125 1 1020 1021
M  V30 2126 1 1020 1023
M  V30 2127 1 1020 4231
M  V30 2128 2 1021 1022
M  V30 2129 1 1021 1033
M  V30 2130 1 1023 1024
M  V30 2131 1 1023 4232
M  V30 2132 1 1023 4233
M  V30 2133 2 1024 1025
M  V30 2134 1 1024 1026
M  V30 2135 1 1025 1027
M  V30 2136 1 1025 4234
M  V30 2137 2 1026 1028
M  V30 2138 1 1026 1029
M  V30 2139 1 1027 1028
M  V30 2140 1 1027 4235
M  V30 2141 1 1028 1030
M  V30 2142 2 1029 1031
M  V30 2143 1 1029 4236
M  V30 2144 2 1030 1032
M  V30 2145 1 1030 4237
M  V30 2146 1 1031 1032
M  V30 2147 1 1031 4238
M  V30 2148 1 1032 4239
M  V30 2149 1 1033 1034
M  V30 2150 1 1033 4240
M  V30 2151 1 1034 1035
M  V30 2152 1 1034 1037
M  V30 2153 1 1034 4241
M  V30 2154 2 1035 1036
M  V30 2155 1 1035 1040
M  V30 2156 1 1037 1038
M  V30 2157 1 1037 1039
M  V30 2158 1 1037 4242
M  V30 2159 1 1038 4243
M  V30 2160 1 1038 4244
M  V30 2161 1 1038 4245
M  V30 2162 1 1039 4246
M  V30 2163 1 1039 4247
M  V30 2164 1 1039 4248
M  V30 2165 1 1040 1041
M  V30 2166 1 1040 4249
M  V30 2167 1 1041 1042
M  V30 2168 1 1041 1044
M  V30 2169 1 1041 4250
M  V30 2170 2 1042 1043
M  V30 2171 1 1042 1047
M  V30 2172 1 1044 1045
M  V30 2173 1 1044 1046
M  V30 2174 1 1044 4251
M  V30 2175 1 1045 4252
M  V30 2176 1 1045 4253
M  V30 2177 1 1045 4254
M  V30 2178 1 1046 4255
M  V30 2179 1 1046 4256
M  V30 2180 1 1046 4257
M  V30 2181 1 1047 1048
M  V30 2182 1 1047 4258
M  V30 2183 1 1048 1049
M  V30 2184 1 1048 1051
M  V30 2185 1 1048 4259
M  V30 2186 2 1049 1050
M  V30 2187 1 1049 1053
M  V30 2188 1 1051 1052
M  V30 2189 1 1051 4260
M  V30 2190 1 1051 4261
M  V30 2191 1 1052 4262
M  V30 2192 1 1053 1054
M  V30 2193 1 1053 4263
M  V30 2194 1 1054 1055
M  V30 2195 1 1054 1057
M  V30 2196 1 1054 4264
M  V30 2197 2 1055 1056
M  V30 2198 1 1055 1060
M  V30 2199 1 1057 1058
M  V30 2200 1 1057 1059
M  V30 2201 1 1057 4265
M  V30 2202 1 1058 4266
M  V30 2203 1 1058 4267
M  V30 2204 1 1058 4268
M  V30 2205 1 1059 4269
M  V30 2206 1 1059 4270
M  V30 2207 1 1059 4271
M  V30 2208 1 1060 1061
M  V30 2209 1 1060 4272
M  V30 2210 1 1061 1062
M  V30 2211 1 1061 1064
M  V30 2212 1 1061 4273
M  V30 2213 2 1062 1063
M  V30 2214 1 1062 1067
M  V30 2215 1 1064 1065
M  V30 2216 1 1064 1066
M  V30 2217 1 1064 4274
M  V30 2218 1 1065 4275
M  V30 2219 1 1065 4276
M  V30 2220 1 1065 4277
M  V30 2221 1 1066 4278
M  V30 2222 1 1066 4279
M  V30 2223 1 1066 4280
M  V30 2224 1 1067 1068
M  V30 2225 1 1067 4281
M  V30 2226 1 1068 1069
M  V30 2227 1 1068 1071
M  V30 2228 1 1068 4282
M  V30 2229 2 1069 1070
M  V30 2230 1 1069 1075
M  V30 2231 1 1071 1072
M  V30 2232 1 1071 4283
M  V30 2233 1 1071 4284
M  V30 2234 1 1072 1073
M  V30 2235 1 1072 1074
M  V30 2236 1 1072 4285
M  V30 2237 1 1073 4286
M  V30 2238 1 1073 4287
M  V30 2239 1 1073 4288
M  V30 2240 1 1074 4289
M  V30 2241 1 1074 4290
M  V30 2242 1 1074 4291
M  V30 2243 1 1075 1076
M  V30 2244 1 1075 4292
M  V30 2245 1 1076 1077
M  V30 2246 1 1076 1079
M  V30 2247 1 1076 4293
M  V30 2248 2 1077 1078
M  V30 2249 1 1077 1080
M  V30 2250 1 1079 4294
M  V30 2251 1 1079 4295
M  V30 2252 1 1079 4296
M  V30 2253 1 1080 1081
M  V30 2254 1 1080 4297
M  V30 2255 1 1081 1082
M  V30 2256 1 1081 1084
M  V30 2257 1 1081 4298
M  V30 2258 2 1082 1083
M  V30 2259 1 1082 1087
M  V30 2260 1 1084 1085
M  V30 2261 1 1084 1086
M  V30 2262 1 1084 4299
M  V30 2263 1 1085 4300
M  V30 2264 1 1085 4301
M  V30 2265 1 1085 4302
M  V30 2266 1 1086 4303
M  V30 2267 1 1086 4304
M  V30 2268 1 1086 4305
M  V30 2269 1 1087 1088
M  V30 2270 1 1087 1093
M  V30 2271 1 1088 1089
M  V30 2272 1 1088 1091
M  V30 2273 1 1088 4306
M  V30 2274 2 1089 1090
M  V30 2275 1 1089 1094
M  V30 2276 1 1091 1092
M  V30 2277 1 1091 4307
M  V30 2278 1 1091 4308
M  V30 2279 1 1092 1093
M  V30 2280 1 1092 4309
M  V30 2281 1 1092 4310
M  V30 2282 1 1093 4311
M  V30 2283 1 1093 4312
M  V30 2284 1 1094 1095
M  V30 2285 1 1094 4313
M  V30 2286 1 1095 1096
M  V30 2287 1 1095 1098
M  V30 2288 1 1095 4314
M  V30 2289 2 1096 1097
M  V30 2290 1 1096 1103
M  V30 2291 1 1098 1099
M  V30 2292 1 1098 4315
M  V30 2293 1 1098 4316
M  V30 2294 1 1099 1100
M  V30 2295 1 1099 4317
M  V30 2296 1 1099 4318
M  V30 2297 2 1100 1101
M  V30 2298 1 1100 1102
M  V30 2299 1 1103 1104
M  V30 2300 1 1103 4319
M  V30 2301 1 1104 1105
M  V30 2302 1 1104 1107
M  V30 2303 1 1104 4320
M  V30 2304 2 1105 1106
M  V30 2305 1 1105 1108
M  V30 2306 1 1107 4321
M  V30 2307 1 1107 4322
M  V30 2308 1 1107 4323
M  V30 2309 1 1108 1109
M  V30 2310 1 1108 4324
M  V30 2311 1 1109 1110
M  V30 2312 1 1109 1112
M  V30 2313 1 1109 4325
M  V30 2314 2 1110 1111
M  V30 2315 1 1110 1116
M  V30 2316 1 1112 1113
M  V30 2317 1 1112 1114
M  V30 2318 1 1112 4326
M  V30 2319 1 1113 1115
M  V30 2320 1 1113 4327
M  V30 2321 1 1113 4328
M  V30 2322 1 1114 4329
M  V30 2323 1 1114 4330
M  V30 2324 1 1114 4331
M  V30 2325 1 1115 4332
M  V30 2326 1 1115 4333
M  V30 2327 1 1115 4334
M  V30 2328 1 1116 1117
M  V30 2329 1 1116 4335
M  V30 2330 1 1117 1118
M  V30 2331 1 1117 4336
M  V30 2332 1 1117 4337
M  V30 2333 2 1118 1119
M  V30 2334 1 1118 1120
M  V30 2335 1 1120 1121
M  V30 2336 1 1120 4338
M  V30 2337 1 1121 1122
M  V30 2338 1 1121 1124
M  V30 2339 1 1121 4339
M  V30 2340 2 1122 1123
M  V30 2341 1 1122 1131
M  V30 2342 1 1124 1125
M  V30 2343 1 1124 4340
M  V30 2344 1 1124 4341
M  V30 2345 2 1125 1126
M  V30 2346 1 1125 1127
M  V30 2347 1 1126 1128
M  V30 2348 1 1126 4342
M  V30 2349 2 1127 1129
M  V30 2350 1 1127 4343
M  V30 2351 2 1128 1130
M  V30 2352 1 1128 4344
M  V30 2353 1 1129 1130
M  V30 2354 1 1129 4345
M  V30 2355 1 1130 4346
M  V30 2356 1 1131 1132
M  V30 2357 1 1131 4347
M  V30 2358 1 1132 1133
M  V30 2359 1 1132 1135
M  V30 2360 1 1132 4348
M  V30 2361 2 1133 1134
M  V30 2362 1 1133 1139
M  V30 2363 1 1135 1136
M  V30 2364 1 1135 4349
M  V30 2365 1 1135 4350
M  V30 2366 2 1136 1137
M  V30 2367 1 1136 1138
M  V30 2368 1 1139 1140
M  V30 2369 1 1139 4351
M  V30 2370 1 1140 1141
M  V30 2371 1 1140 1143
M  V30 2372 1 1140 4352
M  V30 2373 2 1141 1142
M  V30 2374 1 1141 1147
M  V30 2375 1 1143 1144
M  V30 2376 1 1143 1145
M  V30 2377 1 1143 4353
M  V30 2378 1 1144 1146
M  V30 2379 1 1144 4354
M  V30 2380 1 1144 4355
M  V30 2381 1 1145 4356
M  V30 2382 1 1145 4357
M  V30 2383 1 1145 4358
M  V30 2384 1 1146 4359
M  V30 2385 1 1146 4360
M  V30 2386 1 1146 4361
M  V30 2387 1 1147 1148
M  V30 2388 1 1147 4362
M  V30 2389 1 1148 1149
M  V30 2390 1 1148 1151
M  V30 2391 1 1148 4363
M  V30 2392 2 1149 1150
M  V30 2393 1 1149 1155
M  V30 2394 1 1151 1152
M  V30 2395 1 1151 1153
M  V30 2396 1 1151 4364
M  V30 2397 1 1152 1154
M  V30 2398 1 1152 4365
M  V30 2399 1 1152 4366
M  V30 2400 1 1153 4367
M  V30 2401 1 1153 4368
M  V30 2402 1 1153 4369
M  V30 2403 1 1154 4370
M  V30 2404 1 1154 4371
M  V30 2405 1 1154 4372
M  V30 2406 1 1155 1156
M  V30 2407 1 1155 4373
M  V30 2408 1 1156 1157
M  V30 2409 1 1156 1159
M  V30 2410 1 1156 4374
M  V30 2411 2 1157 1158
M  V30 2412 1 1157 1162
M  V30 2413 1 1159 1160
M  V30 2414 1 1159 1161
M  V30 2415 1 1159 4375
M  V30 2416 1 1160 4376
M  V30 2417 1 1161 4377
M  V30 2418 1 1161 4378
M  V30 2419 1 1161 4379
M  V30 2420 1 1162 1163
M  V30 2421 1 1162 4380
M  V30 2422 1 1163 1164
M  V30 2423 1 1163 4381
M  V30 2424 1 1163 6417
M  V30 2425 2 1164 1165
M  V30 2426 1 1164 1166
M  V30 2427 1 1166 1167
M  V30 2428 1 1166 4382
M  V30 2429 1 1167 1168
M  V30 2430 1 1167 1170
M  V30 2431 1 1167 4383
M  V30 2432 2 1168 1169
M  V30 2433 1 1168 1174
M  V30 2434 1 1170 1171
M  V30 2435 1 1170 4384
M  V30 2436 1 1170 4385
M  V30 2437 2 1171 1172
M  V30 2438 1 1171 1173
M  V30 2439 1 1174 1175
M  V30 2440 1 1174 4386
M  V30 2441 1 1175 1176
M  V30 2442 1 1175 4387
M  V30 2443 1 1175 6428
M  V30 2444 2 1176 1177
M  V30 2445 1 1176 1178
M  V30 2446 1 1178 1179
M  V30 2447 1 1178 4388
M  V30 2448 1 1179 1180
M  V30 2449 1 1179 4389
M  V30 2450 1 1179 6443
M  V30 2451 2 1180 1181
M  V30 2452 1 1180 1182
M  V30 2453 1 1182 1183
M  V30 2454 1 1182 4390
M  V30 2455 1 1183 1184
M  V30 2456 1 1183 4391
M  V30 2457 1 1183 4392
M  V30 2458 2 1184 1185
M  V30 2459 1 1184 1186
M  V30 2460 1 1186 1187
M  V30 2461 1 1186 4393
M  V30 2462 1 1187 1188
M  V30 2463 1 1187 1190
M  V30 2464 1 1187 4394
M  V30 2465 2 1188 1189
M  V30 2466 1 1188 1192
M  V30 2467 1 1190 1191
M  V30 2468 1 1190 4395
M  V30 2469 1 1190 4396
M  V30 2470 1 1191 4397
M  V30 2471 1 1192 1193
M  V30 2472 1 1192 4398
M  V30 2473 1 1193 1194
M  V30 2474 1 1193 1196
M  V30 2475 1 1193 4399
M  V30 2476 2 1194 1195
M  V30 2477 1 1194 1204
M  V30 2478 1 1196 1197
M  V30 2479 1 1196 4400
M  V30 2480 1 1196 4401
M  V30 2481 2 1197 1198
M  V30 2482 1 1197 1199
M  V30 2483 1 1198 1200
M  V30 2484 1 1198 4402
M  V30 2485 2 1199 1201
M  V30 2486 1 1199 4403
M  V30 2487 2 1200 1202
M  V30 2488 1 1200 4404
M  V30 2489 1 1201 1202
M  V30 2490 1 1201 4405
M  V30 2491 1 1202 1203
M  V30 2492 1 1203 4406
M  V30 2493 1 1204 1205
M  V30 2494 1 1204 4407
M  V30 2495 1 1205 1206
M  V30 2496 1 1205 4408
M  V30 2497 1 1205 6459
M  V30 2498 2 1206 1207
M  V30 2499 1 1206 1208
M  V30 2500 1 1208 1209
M  V30 2501 1 1208 4409
M  V30 2502 1 1209 1210
M  V30 2503 1 1209 4410
M  V30 2504 1 1209 6472
M  V30 2505 2 1210 1211
M  V30 2506 1 1210 1212
M  V30 2507 1 1212 1213
M  V30 2508 1 1212 4411
M  V30 2509 1 1213 1214
M  V30 2510 1 1213 1216
M  V30 2511 1 1213 4412
M  V30 2512 2 1214 1215
M  V30 2513 1 1214 1220
M  V30 2514 1 1216 1217
M  V30 2515 1 1216 1218
M  V30 2516 1 1216 4413
M  V30 2517 1 1217 1219
M  V30 2518 1 1217 4414
M  V30 2519 1 1217 4415
M  V30 2520 1 1218 4416
M  V30 2521 1 1218 4417
M  V30 2522 1 1218 4418
M  V30 2523 1 1219 4419
M  V30 2524 1 1219 4420
M  V30 2525 1 1219 4421
M  V30 2526 1 1220 1221
M  V30 2527 1 1220 4422
M  V30 2528 1 1221 1222
M  V30 2529 1 1221 1224
M  V30 2530 1 1221 4423
M  V30 2531 2 1222 1223
M  V30 2532 1 1222 1226
M  V30 2533 1 1224 1225
M  V30 2534 1 1224 4424
M  V30 2535 1 1224 4425
M  V30 2536 1 1226 1227
M  V30 2537 1 1226 4426
M  V30 2538 1 1227 1228
M  V30 2539 1 1227 1230
M  V30 2540 1 1227 4427
M  V30 2541 2 1228 1229
M  V30 2542 1 1228 1234
M  V30 2543 1 1230 1231
M  V30 2544 1 1230 4428
M  V30 2545 1 1230 4429
M  V30 2546 1 1231 1232
M  V30 2547 1 1231 1233
M  V30 2548 1 1231 4430
M  V30 2549 1 1232 4431
M  V30 2550 1 1232 4432
M  V30 2551 1 1232 4433
M  V30 2552 1 1233 4434
M  V30 2553 1 1233 4435
M  V30 2554 1 1233 4436
M  V30 2555 1 1234 1235
M  V30 2556 1 1234 4437
M  V30 2557 1 1235 1236
M  V30 2558 1 1235 1238
M  V30 2559 1 1235 4438
M  V30 2560 2 1236 1237
M  V30 2561 1 1236 1242
M  V30 2562 1 1238 1239
M  V30 2563 1 1238 4439
M  V30 2564 1 1238 4440
M  V30 2565 1 1239 1240
M  V30 2566 1 1239 1241
M  V30 2567 1 1239 4441
M  V30 2568 1 1240 4442
M  V30 2569 1 1240 4443
M  V30 2570 1 1240 4444
M  V30 2571 1 1241 4445
M  V30 2572 1 1241 4446
M  V30 2573 1 1241 4447
M  V30 2574 1 1242 1243
M  V30 2575 1 1242 4448
M  V30 2576 1 1243 1244
M  V30 2577 1 1243 1246
M  V30 2578 1 1243 4449
M  V30 2579 2 1244 1245
M  V30 2580 1 1244 1252
M  V30 2581 1 1246 1247
M  V30 2582 1 1246 4450
M  V30 2583 1 1246 4451
M  V30 2584 1 1247 1248
M  V30 2585 2 1247 1249
M  V30 2586 2 1248 1250
M  V30 2587 1 1249 1251
M  V30 2588 1 1249 4452
M  V30 2589 1 1250 1251
M  V30 2590 1 1250 4453
M  V30 2591 1 1251 6731
M  V30 2592 1 1252 1253
M  V30 2593 1 1252 1258
M  V30 2594 1 1253 1254
M  V30 2595 1 1253 1256
M  V30 2596 1 1253 4454
M  V30 2597 2 1254 1255
M  V30 2598 1 1254 1259
M  V30 2599 1 1256 1257
M  V30 2600 1 1256 4455
M  V30 2601 1 1256 4456
M  V30 2602 1 1257 1258
M  V30 2603 1 1257 4457
M  V30 2604 1 1257 4458
M  V30 2605 1 1258 4459
M  V30 2606 1 1258 4460
M  V30 2607 1 1259 1260
M  V30 2608 1 1259 4461
M  V30 2609 1 1260 1261
M  V30 2610 1 1260 1263
M  V30 2611 1 1260 4462
M  V30 2612 2 1261 1262
M  V30 2613 1 1261 1266
M  V30 2614 1 1263 1264
M  V30 2615 1 1263 1265
M  V30 2616 1 1263 4463
M  V30 2617 1 1264 4464
M  V30 2618 1 1264 4465
M  V30 2619 1 1264 4466
M  V30 2620 1 1265 4467
M  V30 2621 1 1265 4468
M  V30 2622 1 1265 4469
M  V30 2623 1 1266 1267
M  V30 2624 1 1266 4470
M  V30 2625 1 1267 1268
M  V30 2626 1 1267 1270
M  V30 2627 1 1267 4471
M  V30 2628 2 1268 1269
M  V30 2629 1 1268 1275
M  V30 2630 1 1270 1271
M  V30 2631 1 1270 4472
M  V30 2632 1 1270 4473
M  V30 2633 1 1271 1272
M  V30 2634 1 1271 4474
M  V30 2635 1 1271 4475
M  V30 2636 2 1272 1273
M  V30 2637 1 1272 1274
M  V30 2638 1 1274 4476
M  V30 2639 1 1274 4477
M  V30 2640 1 1275 1276
M  V30 2641 1 1275 4478
M  V30 2642 1 1276 1277
M  V30 2643 1 1276 4479
M  V30 2644 1 1276 6490
M  V30 2645 2 1277 1278
M  V30 2646 1 1277 1279
M  V30 2647 1 1279 1280
M  V30 2648 1 1279 4480
M  V30 2649 1 1280 1281
M  V30 2650 1 1280 1283
M  V30 2651 1 1280 4481
M  V30 2652 2 1281 1282
M  V30 2653 1 1281 1286
M  V30 2654 1 1283 1284
M  V30 2655 1 1283 1285
M  V30 2656 1 1283 4482
M  V30 2657 1 1284 4483
M  V30 2658 1 1285 4484
M  V30 2659 1 1285 4485
M  V30 2660 1 1285 4486
M  V30 2661 1 1286 1287
M  V30 2662 1 1286 4487
M  V30 2663 1 1287 1288
M  V30 2664 1 1287 1290
M  V30 2665 1 1287 4488
M  V30 2666 2 1288 1289
M  V30 2667 1 1288 1291
M  V30 2668 1 1290 4489
M  V30 2669 1 1290 4490
M  V30 2670 1 1290 4491
M  V30 2671 1 1291 1292
M  V30 2672 1 1291 4492
M  V30 2673 1 1292 1293
M  V30 2674 1 1292 1295
M  V30 2675 1 1292 4493
M  V30 2676 2 1293 1294
M  V30 2677 1 1293 1302
M  V30 2678 1 1295 1296
M  V30 2679 1 1295 4494
M  V30 2680 1 1295 4495
M  V30 2681 2 1296 1297
M  V30 2682 1 1296 1298
M  V30 2683 1 1297 1299
M  V30 2684 1 1297 4496
M  V30 2685 2 1298 1300
M  V30 2686 1 1298 4497
M  V30 2687 2 1299 1301
M  V30 2688 1 1299 4498
M  V30 2689 1 1300 1301
M  V30 2690 1 1300 4499
M  V30 2691 1 1301 4500
M  V30 2692 1 1302 1303
M  V30 2693 1 1302 4501
M  V30 2694 1 1303 1304
M  V30 2695 1 1303 1306
M  V30 2696 1 1303 4502
M  V30 2697 2 1304 1305
M  V30 2698 1 1304 1310
M  V30 2699 1 1306 1307
M  V30 2700 1 1306 4503
M  V30 2701 1 1306 4504
M  V30 2702 1 1307 1308
M  V30 2703 1 1307 4505
M  V30 2704 1 1307 4506
M  V30 2705 1 1308 1309
M  V30 2706 1 1309 4507
M  V30 2707 1 1309 4508
M  V30 2708 1 1309 4509
M  V30 2709 1 1310 1311
M  V30 2710 1 1310 4510
M  V30 2711 1 1311 1312
M  V30 2712 1 1311 4511
M  V30 2713 1 1311 6506
M  V30 2714 2 1312 1313
M  V30 2715 1 1312 1314
M  V30 2716 1 1314 1315
M  V30 2717 1 1314 4512
M  V30 2718 1 1315 1316
M  V30 2719 1 1315 4513
M  V30 2720 1 1315 6517
M  V30 2721 2 1316 1317
M  V30 2722 1 1316 1318
M  V30 2723 1 1318 1319
M  V30 2724 1 1318 4514
M  V30 2725 1 1319 1320
M  V30 2726 1 1319 1322
M  V30 2727 1 1319 4515
M  V30 2728 2 1320 1321
M  V30 2729 1 1320 1330
M  V30 2730 1 1322 1323
M  V30 2731 1 1322 4516
M  V30 2732 1 1322 4517
M  V30 2733 2 1323 1324
M  V30 2734 1 1323 1325
M  V30 2735 1 1324 1326
M  V30 2736 1 1324 4518
M  V30 2737 2 1325 1327
M  V30 2738 1 1325 4519
M  V30 2739 2 1326 1328
M  V30 2740 1 1326 4520
M  V30 2741 1 1327 1328
M  V30 2742 1 1327 4521
M  V30 2743 1 1328 1329
M  V30 2744 1 1329 4522
M  V30 2745 1 1330 1331
M  V30 2746 1 1330 4523
M  V30 2747 1 1331 1332
M  V30 2748 1 1331 1334
M  V30 2749 1 1331 4524
M  V30 2750 2 1332 1333
M  V30 2751 1 1332 1335
M  V30 2752 1 1334 4525
M  V30 2753 1 1334 4526
M  V30 2754 1 1334 4527
M  V30 2755 1 1335 1336
M  V30 2756 1 1335 4528
M  V30 2757 1 1336 1337
M  V30 2758 1 1336 1339
M  V30 2759 1 1336 4529
M  V30 2760 2 1337 1338
M  V30 2761 1 1337 1342
M  V30 2762 1 1339 1340
M  V30 2763 1 1339 1341
M  V30 2764 1 1339 4530
M  V30 2765 1 1340 4531
M  V30 2766 1 1341 4532
M  V30 2767 1 1341 4533
M  V30 2768 1 1341 4534
M  V30 2769 1 1342 1343
M  V30 2770 1 1342 4535
M  V30 2771 1 1343 1344
M  V30 2772 1 1343 1346
M  V30 2773 1 1343 4536
M  V30 2774 2 1344 1345
M  V30 2775 1 1344 1347
M  V30 2776 1 1346 4537
M  V30 2777 1 1346 4538
M  V30 2778 1 1346 4539
M  V30 2779 1 1347 1348
M  V30 2780 1 1347 4540
M  V30 2781 1 1348 1349
M  V30 2782 1 1348 1351
M  V30 2783 1 1348 4541
M  V30 2784 2 1349 1350
M  V30 2785 1 1349 1356
M  V30 2786 1 1351 1352
M  V30 2787 1 1351 4542
M  V30 2788 1 1351 4543
M  V30 2789 1 1352 1353
M  V30 2790 1 1352 4544
M  V30 2791 1 1352 4545
M  V30 2792 1 1353 1354
M  V30 2793 1 1353 4546
M  V30 2794 1 1353 4547
M  V30 2795 1 1354 1355
M  V30 2796 1 1354 4548
M  V30 2797 1 1354 4549
M  V30 2798 1 1355 4550
M  V30 2799 1 1355 4551
M  V30 2800 1 1355 4552
M  V30 2801 1 1356 1357
M  V30 2802 1 1356 4553
M  V30 2803 1 1357 1358
M  V30 2804 1 1357 1360
M  V30 2805 1 1357 4554
M  V30 2806 2 1358 1359
M  V30 2807 1 1358 1364
M  V30 2808 1 1360 1361
M  V30 2809 1 1360 4555
M  V30 2810 1 1360 4556
M  V30 2811 2 1361 1362
M  V30 2812 1 1361 1363
M  V30 2813 1 1364 1365
M  V30 2814 1 1364 4557
M  V30 2815 1 1365 1366
M  V30 2816 1 1365 1368
M  V30 2817 1 1365 4558
M  V30 2818 2 1366 1367
M  V30 2819 1 1366 1378
M  V30 2820 1 1368 1369
M  V30 2821 1 1368 4559
M  V30 2822 1 1368 4560
M  V30 2823 2 1369 1370
M  V30 2824 1 1369 1371
M  V30 2825 1 1370 1372
M  V30 2826 1 1370 4561
M  V30 2827 2 1371 1373
M  V30 2828 1 1371 1374
M  V30 2829 1 1372 1373
M  V30 2830 1 1372 4562
M  V30 2831 1 1373 1375
M  V30 2832 2 1374 1376
M  V30 2833 1 1374 4563
M  V30 2834 2 1375 1377
M  V30 2835 1 1375 4564
M  V30 2836 1 1376 1377
M  V30 2837 1 1376 4565
M  V30 2838 1 1377 4566
M  V30 2839 1 1378 1379
M  V30 2840 1 1378 4567
M  V30 2841 1 1379 1380
M  V30 2842 1 1379 1382
M  V30 2843 1 1379 4568
M  V30 2844 2 1380 1381
M  V30 2845 1 1380 1392
M  V30 2846 1 1382 1383
M  V30 2847 1 1382 4569
M  V30 2848 1 1382 4570
M  V30 2849 2 1383 1384
M  V30 2850 1 1383 1385
M  V30 2851 1 1384 1386
M  V30 2852 1 1384 4571
M  V30 2853 2 1385 1387
M  V30 2854 1 1385 1388
M  V30 2855 1 1386 1387
M  V30 2856 1 1386 4572
M  V30 2857 1 1387 1389
M  V30 2858 2 1388 1390
M  V30 2859 1 1388 4573
M  V30 2860 2 1389 1391
M  V30 2861 1 1389 4574
M  V30 2862 1 1390 1391
M  V30 2863 1 1390 4575
M  V30 2864 1 1391 4576
M  V30 2865 1 1392 1393
M  V30 2866 1 1392 4577
M  V30 2867 1 1393 1394
M  V30 2868 1 1393 1396
M  V30 2869 1 1393 4578
M  V30 2870 2 1394 1395
M  V30 2871 1 1394 1400
M  V30 2872 1 1396 1397
M  V30 2873 1 1396 4579
M  V30 2874 1 1396 4580
M  V30 2875 1 1397 1398
M  V30 2876 1 1397 1399
M  V30 2877 1 1397 4581
M  V30 2878 1 1398 4582
M  V30 2879 1 1398 4583
M  V30 2880 1 1398 4584
M  V30 2881 1 1399 4585
M  V30 2882 1 1399 4586
M  V30 2883 1 1399 4587
M  V30 2884 1 1400 1401
M  V30 2885 1 1400 4588
M  V30 2886 1 1401 1402
M  V30 2887 1 1401 1404
M  V30 2888 1 1401 4589
M  V30 2889 2 1402 1403
M  V30 2890 1 1402 1411
M  V30 2891 1 1404 1405
M  V30 2892 1 1404 4590
M  V30 2893 1 1404 4591
M  V30 2894 2 1405 1406
M  V30 2895 1 1405 1407
M  V30 2896 1 1406 1408
M  V30 2897 1 1406 4592
M  V30 2898 2 1407 1409
M  V30 2899 1 1407 4593
M  V30 2900 2 1408 1410
M  V30 2901 1 1408 4594
M  V30 2902 1 1409 1410
M  V30 2903 1 1409 4595
M  V30 2904 1 1410 4596
M  V30 2905 1 1411 1412
M  V30 2906 1 1411 4597
M  V30 2907 1 1412 1413
M  V30 2908 1 1412 1415
M  V30 2909 1 1412 4598
M  V30 2910 2 1413 1414
M  V30 2911 1 1413 1417
M  V30 2912 1 1415 1416
M  V30 2913 1 1415 4599
M  V30 2914 1 1415 4600
M  V30 2915 1 1416 4601
M  V30 2916 1 1417 1418
M  V30 2917 1 1417 4602
M  V30 2918 1 1418 1419
M  V30 2919 1 1418 1421
M  V30 2920 1 1418 4603
M  V30 2921 2 1419 1420
M  V30 2922 1 1419 1428
M  V30 2923 1 1421 1422
M  V30 2924 1 1421 4604
M  V30 2925 1 1421 4605
M  V30 2926 2 1422 1423
M  V30 2927 1 1422 1424
M  V30 2928 1 1423 1425
M  V30 2929 1 1423 4606
M  V30 2930 2 1424 1426
M  V30 2931 1 1424 4607
M  V30 2932 2 1425 1427
M  V30 2933 1 1425 4608
M  V30 2934 1 1426 1427
M  V30 2935 1 1426 4609
M  V30 2936 1 1427 4610
M  V30 2937 1 1428 1429
M  V30 2938 1 1428 4611
M  V30 2939 1 1429 1430
M  V30 2940 1 1429 1432
M  V30 2941 1 1429 4612
M  V30 2942 2 1430 1431
M  V30 2943 1 1430 1440
M  V30 2944 1 1432 1433
M  V30 2945 1 1432 4613
M  V30 2946 1 1432 4614
M  V30 2947 2 1433 1434
M  V30 2948 1 1433 1435
M  V30 2949 1 1434 1436
M  V30 2950 1 1434 4615
M  V30 2951 2 1435 1437
M  V30 2952 1 1435 4616
M  V30 2953 2 1436 1438
M  V30 2954 1 1436 4617
M  V30 2955 1 1437 1438
M  V30 2956 1 1437 4618
M  V30 2957 1 1438 1439
M  V30 2958 1 1439 4619
M  V30 2959 1 1440 1441
M  V30 2960 1 1440 4620
M  V30 2961 1 1441 1442
M  V30 2962 1 1441 1444
M  V30 2963 1 1441 4621
M  V30 2964 2 1442 1443
M  V30 2965 1 1442 1451
M  V30 2966 1 1444 1445
M  V30 2967 1 1444 4622
M  V30 2968 1 1444 4623
M  V30 2969 2 1445 1446
M  V30 2970 1 1445 1447
M  V30 2971 1 1446 1448
M  V30 2972 1 1446 4624
M  V30 2973 2 1447 1449
M  V30 2974 1 1447 4625
M  V30 2975 2 1448 1450
M  V30 2976 1 1448 4626
M  V30 2977 1 1449 1450
M  V30 2978 1 1449 4627
M  V30 2979 1 1450 4628
M  V30 2980 1 1451 1452
M  V30 2981 1 1451 4629
M  V30 2982 1 1452 1453
M  V30 2983 1 1452 1455
M  V30 2984 1 1452 4630
M  V30 2985 2 1453 1454
M  V30 2986 1 1453 1457
M  V30 2987 1 1455 1456
M  V30 2988 1 1455 4631
M  V30 2989 1 1455 4632
M  V30 2990 1 1456 4633
M  V30 2991 1 1457 1458
M  V30 2992 1 1457 4634
M  V30 2993 1 1458 1459
M  V30 2994 1 1458 1461
M  V30 2995 1 1458 4635
M  V30 2996 2 1459 1460
M  V30 2997 1 1459 1465
M  V30 2998 1 1461 1462
M  V30 2999 1 1461 4636
M  V30 3000 1 1461 4637
M  V30 3001 1 1462 1463
M  V30 3002 1 1462 1464
M  V30 3003 1 1462 4638
M  V30 3004 1 1463 4639
M  V30 3005 1 1463 4640
M  V30 3006 1 1463 4641
M  V30 3007 1 1464 4642
M  V30 3008 1 1464 4643
M  V30 3009 1 1464 4644
M  V30 3010 1 1465 1466
M  V30 3011 1 1465 1471
M  V30 3012 1 1466 1467
M  V30 3013 1 1466 1469
M  V30 3014 1 1466 4645
M  V30 3015 2 1467 1468
M  V30 3016 1 1467 1472
M  V30 3017 1 1469 1470
M  V30 3018 1 1469 4646
M  V30 3019 1 1469 4647
M  V30 3020 1 1470 1471
M  V30 3021 1 1470 4648
M  V30 3022 1 1470 4649
M  V30 3023 1 1471 4650
M  V30 3024 1 1471 4651
M  V30 3025 1 1472 1473
M  V30 3026 1 1472 4652
M  V30 3027 1 1473 1474
M  V30 3028 1 1473 1476
M  V30 3029 1 1473 4653
M  V30 3030 2 1474 1475
M  V30 3031 1 1474 1480
M  V30 3032 1 1476 1477
M  V30 3033 1 1476 4654
M  V30 3034 1 1476 4655
M  V30 3035 1 1477 1478
M  V30 3036 1 1477 1479
M  V30 3037 1 1477 4656
M  V30 3038 1 1478 4657
M  V30 3039 1 1478 4658
M  V30 3040 1 1478 4659
M  V30 3041 1 1479 4660
M  V30 3042 1 1479 4661
M  V30 3043 1 1479 4662
M  V30 3044 1 1480 1481
M  V30 3045 1 1480 4663
M  V30 3046 1 1481 1482
M  V30 3047 1 1481 1484
M  V30 3048 1 1481 4664
M  V30 3049 2 1482 1483
M  V30 3050 1 1482 1485
M  V30 3051 1 1484 4665
M  V30 3052 1 1484 4666
M  V30 3053 1 1484 4667
M  V30 3054 1 1485 1486
M  V30 3055 1 1485 4668
M  V30 3056 1 1486 1487
M  V30 3057 1 1486 1489
M  V30 3058 1 1486 4669
M  V30 3059 2 1487 1488
M  V30 3060 1 1487 1493
M  V30 3061 1 1489 1490
M  V30 3062 1 1489 1491
M  V30 3063 1 1489 4670
M  V30 3064 1 1490 1492
M  V30 3065 1 1490 4671
M  V30 3066 1 1490 4672
M  V30 3067 1 1491 4673
M  V30 3068 1 1491 4674
M  V30 3069 1 1491 4675
M  V30 3070 1 1492 4676
M  V30 3071 1 1492 4677
M  V30 3072 1 1492 4678
M  V30 3073 1 1493 1494
M  V30 3074 1 1493 4679
M  V30 3075 1 1494 1495
M  V30 3076 1 1494 1497
M  V30 3077 1 1494 4680
M  V30 3078 2 1495 1496
M  V30 3079 1 1495 1500
M  V30 3080 1 1497 1498
M  V30 3081 1 1497 1499
M  V30 3082 1 1497 4681
M  V30 3083 1 1498 4682
M  V30 3084 1 1499 4683
M  V30 3085 1 1499 4684
M  V30 3086 1 1499 4685
M  V30 3087 1 1500 1501
M  V30 3088 1 1500 4686
M  V30 3089 1 1501 1502
M  V30 3090 1 1501 1504
M  V30 3091 1 1501 4687
M  V30 3092 2 1502 1503
M  V30 3093 1 1502 1505
M  V30 3094 1 1504 4688
M  V30 3095 1 1504 4689
M  V30 3096 1 1504 4690
M  V30 3097 1 1505 1506
M  V30 3098 1 1505 4691
M  V30 3099 1 1506 1507
M  V30 3100 1 1506 1509
M  V30 3101 1 1506 4692
M  V30 3102 2 1507 1508
M  V30 3103 1 1507 1516
M  V30 3104 1 1509 1510
M  V30 3105 1 1509 4693
M  V30 3106 1 1509 4694
M  V30 3107 2 1510 1511
M  V30 3108 1 1510 1512
M  V30 3109 1 1511 1513
M  V30 3110 1 1511 4695
M  V30 3111 2 1512 1514
M  V30 3112 1 1512 4696
M  V30 3113 2 1513 1515
M  V30 3114 1 1513 4697
M  V30 3115 1 1514 1515
M  V30 3116 1 1514 4698
M  V30 3117 1 1515 4699
M  V30 3118 1 1516 1517
M  V30 3119 1 1516 4700
M  V30 3120 1 1517 1518
M  V30 3121 1 1517 1520
M  V30 3122 1 1517 4701
M  V30 3123 2 1518 1519
M  V30 3124 1 1518 1527
M  V30 3125 1 1520 1521
M  V30 3126 1 1520 4702
M  V30 3127 1 1520 4703
M  V30 3128 2 1521 1522
M  V30 3129 1 1521 1523
M  V30 3130 1 1522 1524
M  V30 3131 1 1522 4704
M  V30 3132 2 1523 1525
M  V30 3133 1 1523 4705
M  V30 3134 2 1524 1526
M  V30 3135 1 1524 4706
M  V30 3136 1 1525 1526
M  V30 3137 1 1525 4707
M  V30 3138 1 1526 4708
M  V30 3139 1 1527 1528
M  V30 3140 1 1527 4709
M  V30 3141 1 1528 1529
M  V30 3142 1 1528 1531
M  V30 3143 1 1528 4710
M  V30 3144 2 1529 1530
M  V30 3145 1 1529 1539
M  V30 3146 1 1531 1532
M  V30 3147 1 1531 4711
M  V30 3148 1 1531 4712
M  V30 3149 2 1532 1533
M  V30 3150 1 1532 1534
M  V30 3151 1 1533 1535
M  V30 3152 1 1533 4713
M  V30 3153 2 1534 1536
M  V30 3154 1 1534 4714
M  V30 3155 2 1535 1537
M  V30 3156 1 1535 4715
M  V30 3157 1 1536 1537
M  V30 3158 1 1536 4716
M  V30 3159 1 1537 1538
M  V30 3160 1 1538 4717
M  V30 3161 1 1539 1540
M  V30 3162 1 1539 4718
M  V30 3163 1 1540 1541
M  V30 3164 1 1540 1543
M  V30 3165 1 1540 4719
M  V30 3166 2 1541 1542
M  V30 3167 1 1541 1546
M  V30 3168 1 1543 1544
M  V30 3169 1 1543 1545
M  V30 3170 1 1543 4720
M  V30 3171 1 1544 4721
M  V30 3172 1 1545 4722
M  V30 3173 1 1545 4723
M  V30 3174 1 1545 4724
M  V30 3175 1 1546 1547
M  V30 3176 1 1546 4725
M  V30 3177 1 1547 1548
M  V30 3178 1 1547 1550
M  V30 3179 1 1547 4726
M  V30 3180 2 1548 1549
M  V30 3181 1 1548 1554
M  V30 3182 1 1550 1551
M  V30 3183 1 1550 4727
M  V30 3184 1 1550 4728
M  V30 3185 1 1551 1552
M  V30 3186 1 1551 1553
M  V30 3187 1 1551 4729
M  V30 3188 1 1552 4730
M  V30 3189 1 1552 4731
M  V30 3190 1 1552 4732
M  V30 3191 1 1553 4733
M  V30 3192 1 1553 4734
M  V30 3193 1 1553 4735
M  V30 3194 1 1554 1555
M  V30 3195 1 1554 4736
M  V30 3196 1 1555 1556
M  V30 3197 1 1555 1558
M  V30 3198 1 1555 4737
M  V30 3199 2 1556 1557
M  V30 3200 1 1556 1562
M  V30 3201 1 1558 1559
M  V30 3202 1 1558 4738
M  V30 3203 1 1558 4739
M  V30 3204 1 1559 1560
M  V30 3205 1 1559 4740
M  V30 3206 1 1559 4741
M  V30 3207 1 1560 1561
M  V30 3208 1 1561 4742
M  V30 3209 1 1561 4743
M  V30 3210 1 1561 4744
M  V30 3211 1 1562 1563
M  V30 3212 1 1562 4745
M  V30 3213 1 1563 1564
M  V30 3214 1 1563 1566
M  V30 3215 1 1563 4746
M  V30 3216 2 1564 1565
M  V30 3217 1 1564 1569
M  V30 3218 1 1566 1567
M  V30 3219 1 1566 1568
M  V30 3220 1 1566 4747
M  V30 3221 1 1567 4748
M  V30 3222 1 1568 4749
M  V30 3223 1 1568 4750
M  V30 3224 1 1568 4751
M  V30 3225 1 1569 1570
M  V30 3226 1 1569 4752
M  V30 3227 1 1570 1571
M  V30 3228 1 1570 1573
M  V30 3229 1 1570 4753
M  V30 3230 2 1571 1572
M  V30 3231 1 1571 1575
M  V30 3232 1 1573 1574
M  V30 3233 1 1573 4754
M  V30 3234 1 1573 4755
M  V30 3235 1 1574 4756
M  V30 3236 1 1575 1576
M  V30 3237 1 1575 4757
M  V30 3238 1 1576 1577
M  V30 3239 1 1576 1579
M  V30 3240 1 1576 4758
M  V30 3241 2 1577 1578
M  V30 3242 1 1577 1584
M  V30 3243 1 1579 1580
M  V30 3244 1 1579 4759
M  V30 3245 1 1579 4760
M  V30 3246 1 1580 1581
M  V30 3247 1 1580 4761
M  V30 3248 1 1580 4762
M  V30 3249 2 1581 1582
M  V30 3250 1 1581 1583
M  V30 3251 1 1584 1585
M  V30 3252 1 1584 4763
M  V30 3253 1 1585 1586
M  V30 3254 1 1585 1588
M  V30 3255 1 1585 4764
M  V30 3256 2 1586 1587
M  V30 3257 1 1586 1592
M  V30 3258 1 1588 1589
M  V30 3259 1 1588 4765
M  V30 3260 1 1588 4766
M  V30 3261 1 1589 1590
M  V30 3262 1 1589 4767
M  V30 3263 1 1589 4768
M  V30 3264 1 1590 1591
M  V30 3265 1 1591 4769
M  V30 3266 1 1591 4770
M  V30 3267 1 1591 4771
M  V30 3268 1 1592 1593
M  V30 3269 1 1592 4772
M  V30 3270 1 1593 1594
M  V30 3271 1 1593 1596
M  V30 3272 1 1593 4773
M  V30 3273 2 1594 1595
M  V30 3274 1 1594 1600
M  V30 3275 1 1596 1597
M  V30 3276 1 1596 4774
M  V30 3277 1 1596 4775
M  V30 3278 1 1597 1598
M  V30 3279 1 1597 1599
M  V30 3280 1 1597 4776
M  V30 3281 1 1598 4777
M  V30 3282 1 1598 4778
M  V30 3283 1 1598 4779
M  V30 3284 1 1599 4780
M  V30 3285 1 1599 4781
M  V30 3286 1 1599 4782
M  V30 3287 1 1600 1601
M  V30 3288 1 1600 4783
M  V30 3289 1 1601 1602
M  V30 3290 1 1601 1604
M  V30 3291 1 1601 4784
M  V30 3292 2 1602 1603
M  V30 3293 1 1602 1611
M  V30 3294 1 1604 1605
M  V30 3295 1 1604 4785
M  V30 3296 1 1604 4786
M  V30 3297 1 1605 1606
M  V30 3298 1 1605 4787
M  V30 3299 1 1605 4788
M  V30 3300 1 1606 1607
M  V30 3301 1 1606 4789
M  V30 3302 1 1606 4790
M  V30 3303 1 1607 1608
M  V30 3304 1 1607 4791
M  V30 3305 1 1608 1609
M  V30 3306 2 1608 1610
M  V30 3307 1 1609 4792
M  V30 3308 1 1609 4793
M  V30 3309 1 1610 4794
M  V30 3310 1 1610 4795
M  V30 3311 1 1611 1612
M  V30 3312 1 1611 4796
M  V30 3313 1 1612 1613
M  V30 3314 1 1612 1615
M  V30 3315 1 1612 4797
M  V30 3316 2 1613 1614
M  V30 3317 1 1613 1620
M  V30 3318 1 1615 1616
M  V30 3319 1 1615 4798
M  V30 3320 1 1615 4799
M  V30 3321 1 1616 1617
M  V30 3322 1 1616 4800
M  V30 3323 1 1616 4801
M  V30 3324 1 1617 1618
M  V30 3325 1 1617 4802
M  V30 3326 1 1617 4803
M  V30 3327 1 1618 1619
M  V30 3328 1 1618 4804
M  V30 3329 1 1618 4805
M  V30 3330 1 1619 4806
M  V30 3331 1 1619 4807
M  V30 3332 1 1619 4808
M  V30 3333 1 1620 1621
M  V30 3334 1 1620 4809
M  V30 3335 1 1621 1622
M  V30 3336 1 1621 1624
M  V30 3337 1 1621 4810
M  V30 3338 2 1622 1623
M  V30 3339 1 1622 1628
M  V30 3340 1 1624 1625
M  V30 3341 1 1624 4811
M  V30 3342 1 1624 4812
M  V30 3343 2 1625 1626
M  V30 3344 1 1625 1627
M  V30 3345 1 1627 4813
M  V30 3346 1 1627 4814
M  V30 3347 1 1628 1629
M  V30 3348 1 1628 4815
M  V30 3349 1 1629 1630
M  V30 3350 1 1629 1632
M  V30 3351 1 1629 4816
M  V30 3352 2 1630 1631
M  V30 3353 1 1630 1636
M  V30 3354 1 1632 1633
M  V30 3355 1 1632 1634
M  V30 3356 1 1632 4817
M  V30 3357 1 1633 1635
M  V30 3358 1 1633 4818
M  V30 3359 1 1633 4819
M  V30 3360 1 1634 4820
M  V30 3361 1 1634 4821
M  V30 3362 1 1634 4822
M  V30 3363 1 1635 4823
M  V30 3364 1 1635 4824
M  V30 3365 1 1635 4825
M  V30 3366 1 1636 1637
M  V30 3367 1 1636 4826
M  V30 3368 1 1637 1638
M  V30 3369 1 1637 1640
M  V30 3370 1 1637 4827
M  V30 3371 2 1638 1639
M  V30 3372 1 1638 1647
M  V30 3373 1 1640 1641
M  V30 3374 1 1640 4828
M  V30 3375 1 1640 4829
M  V30 3376 2 1641 1642
M  V30 3377 1 1641 1643
M  V30 3378 1 1642 1644
M  V30 3379 1 1642 4830
M  V30 3380 2 1643 1645
M  V30 3381 1 1643 4831
M  V30 3382 2 1644 1646
M  V30 3383 1 1644 4832
M  V30 3384 1 1645 1646
M  V30 3385 1 1645 4833
M  V30 3386 1 1646 4834
M  V30 3387 1 1647 1648
M  V30 3388 1 1647 4835
M  V30 3389 1 1648 1649
M  V30 3390 1 1648 1651
M  V30 3391 1 1648 4836
M  V30 3392 2 1649 1650
M  V30 3393 1 1649 1656
M  V30 3394 1 1651 1652
M  V30 3395 1 1651 4837
M  V30 3396 1 1651 4838
M  V30 3397 1 1652 1653
M  V30 3398 1 1652 4839
M  V30 3399 1 1652 4840
M  V30 3400 2 1653 1654
M  V30 3401 1 1653 1655
M  V30 3402 1 1656 1657
M  V30 3403 1 1656 4841
M  V30 3404 1 1657 1658
M  V30 3405 1 1657 1660
M  V30 3406 1 1657 4842
M  V30 3407 2 1658 1659
M  V30 3408 1 1658 1664
M  V30 3409 1 1660 1661
M  V30 3410 1 1660 4843
M  V30 3411 1 1660 4844
M  V30 3412 1 1661 1662
M  V30 3413 1 1661 4845
M  V30 3414 1 1661 4846
M  V30 3415 1 1662 1663
M  V30 3416 1 1663 4847
M  V30 3417 1 1663 4848
M  V30 3418 1 1663 4849
M  V30 3419 1 1664 1665
M  V30 3420 1 1664 4850
M  V30 3421 1 1665 1666
M  V30 3422 1 1665 1668
M  V30 3423 1 1665 4851
M  V30 3424 2 1666 1667
M  V30 3425 1 1666 1672
M  V30 3426 1 1668 1669
M  V30 3427 1 1668 4852
M  V30 3428 1 1668 4853
M  V30 3429 1 1669 1670
M  V30 3430 1 1669 1671
M  V30 3431 1 1669 4854
M  V30 3432 1 1670 4855
M  V30 3433 1 1670 4856
M  V30 3434 1 1670 4857
M  V30 3435 1 1671 4858
M  V30 3436 1 1671 4859
M  V30 3437 1 1671 4860
M  V30 3438 1 1672 1673
M  V30 3439 1 1672 4861
M  V30 3440 1 1673 1674
M  V30 3441 1 1673 4862
M  V30 3442 1 1673 6648
M  V30 3443 2 1674 1675
M  V30 3444 1 1674 1676
M  V30 3445 1 1676 1677
M  V30 3446 1 1676 4863
M  V30 3447 1 1677 1678
M  V30 3448 1 1677 1680
M  V30 3449 1 1677 4864
M  V30 3450 2 1678 1679
M  V30 3451 1 1678 1684
M  V30 3452 1 1680 1681
M  V30 3453 1 1680 1682
M  V30 3454 1 1680 4865
M  V30 3455 1 1681 1683
M  V30 3456 1 1681 4866
M  V30 3457 1 1681 4867
M  V30 3458 1 1682 4868
M  V30 3459 1 1682 4869
M  V30 3460 1 1682 4870
M  V30 3461 1 1683 4871
M  V30 3462 1 1683 4872
M  V30 3463 1 1683 4873
M  V30 3464 1 1684 1685
M  V30 3465 1 1684 4874
M  V30 3466 1 1685 1686
M  V30 3467 1 1685 1688
M  V30 3468 1 1685 4875
M  V30 3469 2 1686 1687
M  V30 3470 1 1686 1692
M  V30 3471 1 1688 1689
M  V30 3472 1 1688 4876
M  V30 3473 1 1688 4877
M  V30 3474 2 1689 1690
M  V30 3475 1 1689 1691
M  V30 3476 1 1692 1693
M  V30 3477 1 1692 4878
M  V30 3478 1 1693 1694
M  V30 3479 1 1693 1696
M  V30 3480 1 1693 4879
M  V30 3481 2 1694 1695
M  V30 3482 1 1694 4880
M  V30 3483 1 1696 1697
M  V30 3484 1 1696 4881
M  V30 3485 1 1696 4882
M  V30 3486 1 1697 1698
M  V30 3487 1 1697 4883
M  V30 3488 1 1697 4884
M  V30 3489 2 1698 1699
M  V30 3490 1 1698 1700
M  V30 3491 1 1701 1702
M  V30 3492 1 1701 4885
M  V30 3493 1 1701 4886
M  V30 3494 1 1702 1703
M  V30 3495 1 1702 1705
M  V30 3496 1 1702 4887
M  V30 3497 2 1703 1704
M  V30 3498 1 1703 1712
M  V30 3499 1 1705 1706
M  V30 3500 1 1705 4888
M  V30 3501 1 1705 4889
M  V30 3502 2 1706 1707
M  V30 3503 1 1706 1708
M  V30 3504 1 1707 1709
M  V30 3505 1 1707 4890
M  V30 3506 2 1708 1710
M  V30 3507 1 1708 4891
M  V30 3508 2 1709 1711
M  V30 3509 1 1709 4892
M  V30 3510 1 1710 1711
M  V30 3511 1 1710 4893
M  V30 3512 1 1711 4894
M  V30 3513 1 1712 1713
M  V30 3514 1 1712 4895
M  V30 3515 1 1713 1714
M  V30 3516 1 1713 1716
M  V30 3517 1 1713 4896
M  V30 3518 2 1714 1715
M  V30 3519 1 1714 1720
M  V30 3520 1 1716 1717
M  V30 3521 1 1716 4897
M  V30 3522 1 1716 4898
M  V30 3523 2 1717 1718
M  V30 3524 1 1717 1719
M  V30 3525 1 1719 4899
M  V30 3526 1 1719 4900
M  V30 3527 1 1720 1721
M  V30 3528 1 1720 4901
M  V30 3529 1 1721 1722
M  V30 3530 1 1721 4902
M  V30 3531 1 1721 6666
M  V30 3532 2 1722 1723
M  V30 3533 1 1722 1724
M  V30 3534 1 1724 1725
M  V30 3535 1 1724 4903
M  V30 3536 1 1725 1726
M  V30 3537 1 1725 1728
M  V30 3538 1 1725 4904
M  V30 3539 2 1726 1727
M  V30 3540 1 1726 1732
M  V30 3541 1 1728 1729
M  V30 3542 1 1728 4905
M  V30 3543 1 1728 4906
M  V30 3544 2 1729 1730
M  V30 3545 1 1729 1731
M  V30 3546 1 1732 1733
M  V30 3547 1 1732 4907
M  V30 3548 1 1733 1734
M  V30 3549 1 1733 1736
M  V30 3550 1 1733 4908
M  V30 3551 2 1734 1735
M  V30 3552 1 1734 1739
M  V30 3553 1 1736 1737
M  V30 3554 1 1736 1738
M  V30 3555 1 1736 4909
M  V30 3556 1 1737 4910
M  V30 3557 1 1737 4911
M  V30 3558 1 1737 4912
M  V30 3559 1 1738 4913
M  V30 3560 1 1738 4914
M  V30 3561 1 1738 4915
M  V30 3562 1 1739 1740
M  V30 3563 1 1739 4916
M  V30 3564 1 1740 1741
M  V30 3565 1 1740 1743
M  V30 3566 1 1740 4917
M  V30 3567 2 1741 1742
M  V30 3568 1 1741 1747
M  V30 3569 1 1743 1744
M  V30 3570 1 1743 4918
M  V30 3571 1 1743 4919
M  V30 3572 2 1744 1745
M  V30 3573 1 1744 1746
M  V30 3574 1 1747 1748
M  V30 3575 1 1747 4920
M  V30 3576 1 1748 1749
M  V30 3577 1 1748 1751
M  V30 3578 1 1748 4921
M  V30 3579 2 1749 1750
M  V30 3580 1 1749 1752
M  V30 3581 1 1751 4922
M  V30 3582 1 1751 4923
M  V30 3583 1 1751 4924
M  V30 3584 1 1752 1753
M  V30 3585 1 1752 4925
M  V30 3586 1 1753 1754
M  V30 3587 1 1753 1756
M  V30 3588 1 1753 4926
M  V30 3589 2 1754 1755
M  V30 3590 1 1754 1757
M  V30 3591 1 1756 4927
M  V30 3592 1 1756 4928
M  V30 3593 1 1756 4929
M  V30 3594 1 1757 1758
M  V30 3595 1 1757 4930
M  V30 3596 1 1758 1759
M  V30 3597 1 1758 1761
M  V30 3598 1 1758 4931
M  V30 3599 2 1759 1760
M  V30 3600 1 1759 1764
M  V30 3601 1 1761 1762
M  V30 3602 1 1761 1763
M  V30 3603 1 1761 4932
M  V30 3604 1 1762 4933
M  V30 3605 1 1762 4934
M  V30 3606 1 1762 4935
M  V30 3607 1 1763 4936
M  V30 3608 1 1763 4937
M  V30 3609 1 1763 4938
M  V30 3610 1 1764 1765
M  V30 3611 1 1764 4939
M  V30 3612 1 1765 1766
M  V30 3613 1 1765 4940
M  V30 3614 1 1765 6677
M  V30 3615 2 1766 1767
M  V30 3616 1 1766 1768
M  V30 3617 1 1768 1769
M  V30 3618 1 1768 4941
M  V30 3619 1 1769 1770
M  V30 3620 1 1769 4942
M  V30 3621 1 1769 4943
M  V30 3622 2 1770 1771
M  V30 3623 1 1770 1772
M  V30 3624 1 1772 1773
M  V30 3625 1 1772 4944
M  V30 3626 1 1773 1774
M  V30 3627 1 1773 1776
M  V30 3628 1 1773 4945
M  V30 3629 2 1774 1775
M  V30 3630 1 1774 1780
M  V30 3631 1 1776 1777
M  V30 3632 1 1776 1778
M  V30 3633 1 1776 4946
M  V30 3634 1 1777 1779
M  V30 3635 1 1777 4947
M  V30 3636 1 1777 4948
M  V30 3637 1 1778 4949
M  V30 3638 1 1778 4950
M  V30 3639 1 1778 4951
M  V30 3640 1 1779 4952
M  V30 3641 1 1779 4953
M  V30 3642 1 1779 4954
M  V30 3643 1 1780 1781
M  V30 3644 1 1780 4955
M  V30 3645 1 1781 1782
M  V30 3646 1 1781 1784
M  V30 3647 1 1781 4956
M  V30 3648 2 1782 1783
M  V30 3649 1 1782 1788
M  V30 3650 1 1784 1785
M  V30 3651 1 1784 4957
M  V30 3652 1 1784 4958
M  V30 3653 1 1785 1786
M  V30 3654 1 1785 1787
M  V30 3655 1 1785 4959
M  V30 3656 1 1786 4960
M  V30 3657 1 1786 4961
M  V30 3658 1 1786 4962
M  V30 3659 1 1787 4963
M  V30 3660 1 1787 4964
M  V30 3661 1 1787 4965
M  V30 3662 1 1788 1789
M  V30 3663 1 1788 4966
M  V30 3664 1 1789 1790
M  V30 3665 1 1789 1792
M  V30 3666 1 1789 4967
M  V30 3667 2 1790 1791
M  V30 3668 1 1790 1799
M  V30 3669 1 1792 1793
M  V30 3670 1 1792 4968
M  V30 3671 1 1792 4969
M  V30 3672 1 1793 1794
M  V30 3673 1 1793 4970
M  V30 3674 1 1793 4971
M  V30 3675 1 1794 1795
M  V30 3676 1 1794 4972
M  V30 3677 1 1794 4973
M  V30 3678 1 1795 1796
M  V30 3679 1 1795 4974
M  V30 3680 1 1796 1797
M  V30 3681 2 1796 1798
M  V30 3682 1 1797 4975
M  V30 3683 1 1797 4976
M  V30 3684 1 1798 4977
M  V30 3685 1 1798 4978
M  V30 3686 1 1799 1800
M  V30 3687 1 1799 4979
M  V30 3688 1 1800 1801
M  V30 3689 1 1800 1803
M  V30 3690 1 1800 4980
M  V30 3691 2 1801 1802
M  V30 3692 1 1801 1807
M  V30 3693 1 1803 1804
M  V30 3694 1 1803 4981
M  V30 3695 1 1803 4982
M  V30 3696 2 1804 1805
M  V30 3697 1 1804 1806
M  V30 3698 1 1806 4983
M  V30 3699 1 1806 4984
M  V30 3700 1 1807 1808
M  V30 3701 1 1807 4985
M  V30 3702 1 1808 1809
M  V30 3703 1 1808 1811
M  V30 3704 1 1808 4986
M  V30 3705 2 1809 1810
M  V30 3706 1 1809 1812
M  V30 3707 1 1811 4987
M  V30 3708 1 1811 4988
M  V30 3709 1 1811 4989
M  V30 3710 1 1812 1813
M  V30 3711 1 1812 4990
M  V30 3712 1 1813 1814
M  V30 3713 1 1813 1816
M  V30 3714 1 1813 4991
M  V30 3715 2 1814 1815
M  V30 3716 1 1814 1821
M  V30 3717 1 1816 1817
M  V30 3718 1 1816 4992
M  V30 3719 1 1816 4993
M  V30 3720 1 1817 1818
M  V30 3721 1 1817 4994
M  V30 3722 1 1817 4995
M  V30 3723 1 1818 1819
M  V30 3724 1 1818 4996
M  V30 3725 1 1818 4997
M  V30 3726 1 1819 1820
M  V30 3727 1 1819 4998
M  V30 3728 1 1819 4999
M  V30 3729 1 1820 5000
M  V30 3730 1 1820 5001
M  V30 3731 1 1820 5002
M  V30 3732 1 1821 1822
M  V30 3733 1 1821 5003
M  V30 3734 1 1822 1823
M  V30 3735 1 1822 1825
M  V30 3736 1 1822 5004
M  V30 3737 2 1823 1824
M  V30 3738 1 1823 1829
M  V30 3739 1 1825 1826
M  V30 3740 1 1825 5005
M  V30 3741 1 1825 5006
M  V30 3742 1 1826 1827
M  V30 3743 1 1826 1828
M  V30 3744 1 1826 5007
M  V30 3745 1 1827 5008
M  V30 3746 1 1827 5009
M  V30 3747 1 1827 5010
M  V30 3748 1 1828 5011
M  V30 3749 1 1828 5012
M  V30 3750 1 1828 5013
M  V30 3751 1 1829 1830
M  V30 3752 1 1829 5014
M  V30 3753 1 1830 1831
M  V30 3754 1 1830 1833
M  V30 3755 1 1830 5015
M  V30 3756 2 1831 1832
M  V30 3757 1 1831 1838
M  V30 3758 1 1833 1834
M  V30 3759 1 1833 5016
M  V30 3760 1 1833 5017
M  V30 3761 1 1834 1835
M  V30 3762 1 1834 5018
M  V30 3763 1 1834 5019
M  V30 3764 1 1835 1836
M  V30 3765 1 1835 5020
M  V30 3766 1 1835 5021
M  V30 3767 1 1836 1837
M  V30 3768 1 1836 5022
M  V30 3769 1 1836 5023
M  V30 3770 1 1837 5024
M  V30 3771 1 1837 5025
M  V30 3772 1 1837 5026
M  V30 3773 1 1838 1839
M  V30 3774 1 1838 1844
M  V30 3775 1 1839 1840
M  V30 3776 1 1839 1842
M  V30 3777 1 1839 5027
M  V30 3778 2 1840 1841
M  V30 3779 1 1840 1845
M  V30 3780 1 1842 1843
M  V30 3781 1 1842 5028
M  V30 3782 1 1842 5029
M  V30 3783 1 1843 1844
M  V30 3784 1 1843 5030
M  V30 3785 1 1843 5031
M  V30 3786 1 1844 5032
M  V30 3787 1 1844 5033
M  V30 3788 1 1845 1846
M  V30 3789 1 1845 5034
M  V30 3790 1 1846 1847
M  V30 3791 1 1846 1849
M  V30 3792 1 1846 5035
M  V30 3793 2 1847 1848
M  V30 3794 1 1847 1852
M  V30 3795 1 1849 1850
M  V30 3796 1 1849 1851
M  V30 3797 1 1849 5036
M  V30 3798 1 1850 5037
M  V30 3799 1 1850 5038
M  V30 3800 1 1850 5039
M  V30 3801 1 1851 5040
M  V30 3802 1 1851 5041
M  V30 3803 1 1851 5042
M  V30 3804 1 1852 1853
M  V30 3805 1 1852 5043
M  V30 3806 1 1853 1854
M  V30 3807 1 1853 1856
M  V30 3808 1 1853 5044
M  V30 3809 2 1854 1855
M  V30 3810 1 1854 1864
M  V30 3811 1 1856 1857
M  V30 3812 1 1856 5045
M  V30 3813 1 1856 5046
M  V30 3814 2 1857 1858
M  V30 3815 1 1857 1859
M  V30 3816 1 1858 1860
M  V30 3817 1 1858 5047
M  V30 3818 2 1859 1861
M  V30 3819 1 1859 5048
M  V30 3820 2 1860 1862
M  V30 3821 1 1860 5049
M  V30 3822 1 1861 1862
M  V30 3823 1 1861 5050
M  V30 3824 1 1862 1863
M  V30 3825 1 1863 5051
M  V30 3826 1 1864 1865
M  V30 3827 1 1864 5052
M  V30 3828 1 1865 1866
M  V30 3829 1 1865 1868
M  V30 3830 1 1865 5053
M  V30 3831 2 1866 1867
M  V30 3832 1 1866 1872
M  V30 3833 1 1868 1869
M  V30 3834 1 1868 5054
M  V30 3835 1 1868 5055
M  V30 3836 2 1869 1870
M  V30 3837 1 1869 1871
M  V30 3838 1 1872 1873
M  V30 3839 1 1872 5056
M  V30 3840 1 1873 1874
M  V30 3841 1 1873 1876
M  V30 3842 1 1873 5057
M  V30 3843 2 1874 1875
M  V30 3844 1 1874 1878
M  V30 3845 1 1876 1877
M  V30 3846 1 1876 5058
M  V30 3847 1 1876 5059
M  V30 3848 1 1877 5060
M  V30 3849 1 1878 1879
M  V30 3850 1 1878 5061
M  V30 3851 1 1879 1880
M  V30 3852 1 1879 1882
M  V30 3853 1 1879 5062
M  V30 3854 2 1880 1881
M  V30 3855 1 1880 1886
M  V30 3856 1 1882 1883
M  V30 3857 1 1882 5063
M  V30 3858 1 1882 5064
M  V30 3859 1 1883 1884
M  V30 3860 1 1883 1885
M  V30 3861 1 1883 5065
M  V30 3862 1 1884 5066
M  V30 3863 1 1884 5067
M  V30 3864 1 1884 5068
M  V30 3865 1 1885 5069
M  V30 3866 1 1885 5070
M  V30 3867 1 1885 5071
M  V30 3868 1 1886 1887
M  V30 3869 1 1886 5072
M  V30 3870 1 1887 1888
M  V30 3871 1 1887 1890
M  V30 3872 1 1887 5073
M  V30 3873 2 1888 1889
M  V30 3874 1 1888 1894
M  V30 3875 1 1890 1891
M  V30 3876 1 1890 5074
M  V30 3877 1 1890 5075
M  V30 3878 2 1891 1892
M  V30 3879 1 1891 1893
M  V30 3880 1 1894 1895
M  V30 3881 1 1894 5076
M  V30 3882 1 1895 1896
M  V30 3883 1 1895 1898
M  V30 3884 1 1895 5077
M  V30 3885 2 1896 1897
M  V30 3886 1 1896 1899
M  V30 3887 1 1898 5078
M  V30 3888 1 1898 5079
M  V30 3889 1 1898 5080
M  V30 3890 1 1899 1900
M  V30 3891 1 1899 5081
M  V30 3892 1 1900 1901
M  V30 3893 1 1900 1903
M  V30 3894 1 1900 5082
M  V30 3895 2 1901 1902
M  V30 3896 1 1901 1906
M  V30 3897 1 1903 1904
M  V30 3898 1 1903 1905
M  V30 3899 1 1903 5083
M  V30 3900 1 1904 5084
M  V30 3901 1 1904 5085
M  V30 3902 1 1904 5086
M  V30 3903 1 1905 5087
M  V30 3904 1 1905 5088
M  V30 3905 1 1905 5089
M  V30 3906 1 1906 1907
M  V30 3907 1 1906 5090
M  V30 3908 1 1907 1908
M  V30 3909 1 1907 1910
M  V30 3910 1 1907 5091
M  V30 3911 2 1908 1909
M  V30 3912 1 1908 1917
M  V30 3913 1 1910 1911
M  V30 3914 1 1910 5092
M  V30 3915 1 1910 5093
M  V30 3916 1 1911 1912
M  V30 3917 1 1911 5094
M  V30 3918 1 1911 5095
M  V30 3919 1 1912 1913
M  V30 3920 1 1912 5096
M  V30 3921 1 1912 5097
M  V30 3922 1 1913 1914
M  V30 3923 1 1913 5098
M  V30 3924 1 1914 1915
M  V30 3925 2 1914 1916
M  V30 3926 1 1915 5099
M  V30 3927 1 1915 5100
M  V30 3928 1 1916 5101
M  V30 3929 1 1916 5102
M  V30 3930 1 1917 1918
M  V30 3931 1 1917 5103
M  V30 3932 1 1918 1919
M  V30 3933 1 1918 1921
M  V30 3934 1 1918 5104
M  V30 3935 2 1919 1920
M  V30 3936 1 1919 1928
M  V30 3937 1 1921 1922
M  V30 3938 1 1921 5105
M  V30 3939 1 1921 5106
M  V30 3940 1 1922 1923
M  V30 3941 1 1922 5107
M  V30 3942 1 1922 5108
M  V30 3943 1 1923 1924
M  V30 3944 1 1923 5109
M  V30 3945 1 1923 5110
M  V30 3946 1 1924 1925
M  V30 3947 1 1924 5111
M  V30 3948 1 1925 1926
M  V30 3949 2 1925 1927
M  V30 3950 1 1926 5112
M  V30 3951 1 1926 5113
M  V30 3952 1 1927 5114
M  V30 3953 1 1927 5115
M  V30 3954 1 1928 1929
M  V30 3955 1 1928 5116
M  V30 3956 1 1929 1930
M  V30 3957 1 1929 1932
M  V30 3958 1 1929 5117
M  V30 3959 2 1930 1931
M  V30 3960 1 1930 1933
M  V30 3961 1 1932 5118
M  V30 3962 1 1932 5119
M  V30 3963 1 1932 5120
M  V30 3964 1 1933 1934
M  V30 3965 1 1933 5121
M  V30 3966 1 1934 1935
M  V30 3967 1 1934 1937
M  V30 3968 1 1934 5122
M  V30 3969 2 1935 1936
M  V30 3970 1 1935 1938
M  V30 3971 1 1937 5123
M  V30 3972 1 1937 5124
M  V30 3973 1 1937 5125
M  V30 3974 1 1938 1939
M  V30 3975 1 1938 5126
M  V30 3976 1 1939 1940
M  V30 3977 1 1939 1942
M  V30 3978 1 1939 5127
M  V30 3979 2 1940 1941
M  V30 3980 1 1940 1946
M  V30 3981 1 1942 1943
M  V30 3982 1 1942 5128
M  V30 3983 1 1942 5129
M  V30 3984 1 1943 1944
M  V30 3985 1 1943 1945
M  V30 3986 1 1943 5130
M  V30 3987 1 1944 5131
M  V30 3988 1 1944 5132
M  V30 3989 1 1944 5133
M  V30 3990 1 1945 5134
M  V30 3991 1 1945 5135
M  V30 3992 1 1945 5136
M  V30 3993 1 1946 1947
M  V30 3994 1 1946 5137
M  V30 3995 1 1947 1948
M  V30 3996 1 1947 1950
M  V30 3997 1 1947 5138
M  V30 3998 2 1948 1949
M  V30 3999 1 1948 1954
M  V30 4000 1 1950 1951
M  V30 4001 1 1950 1952
M  V30 4002 1 1950 5139
M  V30 4003 1 1951 1953
M  V30 4004 1 1951 5140
M  V30 4005 1 1951 5141
M  V30 4006 1 1952 5142
M  V30 4007 1 1952 5143
M  V30 4008 1 1952 5144
M  V30 4009 1 1953 5145
M  V30 4010 1 1953 5146
M  V30 4011 1 1953 5147
M  V30 4012 1 1954 1955
M  V30 4013 1 1954 5148
M  V30 4014 1 1955 1956
M  V30 4015 1 1955 1958
M  V30 4016 1 1955 5149
M  V30 4017 2 1956 1957
M  V30 4018 1 1956 1962
M  V30 4019 1 1958 1959
M  V30 4020 1 1958 5150
M  V30 4021 1 1958 5151
M  V30 4022 2 1959 1960
M  V30 4023 1 1959 1961
M  V30 4024 1 1961 5152
M  V30 4025 1 1961 5153
M  V30 4026 1 1962 1963
M  V30 4027 1 1962 5154
M  V30 4028 1 1963 1964
M  V30 4029 1 1963 1966
M  V30 4030 1 1963 5155
M  V30 4031 2 1964 1965
M  V30 4032 1 1964 1970
M  V30 4033 1 1966 1967
M  V30 4034 1 1966 5156
M  V30 4035 1 1966 5157
M  V30 4036 1 1967 1968
M  V30 4037 1 1967 5158
M  V30 4038 1 1967 5159
M  V30 4039 1 1968 1969
M  V30 4040 1 1969 5160
M  V30 4041 1 1969 5161
M  V30 4042 1 1969 5162
M  V30 4043 1 1970 1971
M  V30 4044 1 1970 5163
M  V30 4045 1 1971 1972
M  V30 4046 1 1971 1974
M  V30 4047 1 1971 5164
M  V30 4048 2 1972 1973
M  V30 4049 1 1972 1977
M  V30 4050 1 1974 1975
M  V30 4051 1 1974 1976
M  V30 4052 1 1974 5165
M  V30 4053 1 1975 5166
M  V30 4054 1 1975 5167
M  V30 4055 1 1975 5168
M  V30 4056 1 1976 5169
M  V30 4057 1 1976 5170
M  V30 4058 1 1976 5171
M  V30 4059 1 1977 1978
M  V30 4060 1 1977 5172
M  V30 4061 1 1978 1979
M  V30 4062 1 1978 1981
M  V30 4063 1 1978 5173
M  V30 4064 2 1979 1980
M  V30 4065 1 1979 1988
M  V30 4066 1 1981 1982
M  V30 4067 1 1981 5174
M  V30 4068 1 1981 5175
M  V30 4069 2 1982 1983
M  V30 4070 1 1982 1984
M  V30 4071 1 1983 1985
M  V30 4072 1 1983 5176
M  V30 4073 2 1984 1986
M  V30 4074 1 1984 5177
M  V30 4075 2 1985 1987
M  V30 4076 1 1985 5178
M  V30 4077 1 1986 1987
M  V30 4078 1 1986 5179
M  V30 4079 1 1987 5180
M  V30 4080 1 1988 1989
M  V30 4081 1 1988 5181
M  V30 4082 1 1989 1990
M  V30 4083 1 1989 1992
M  V30 4084 1 1989 5182
M  V30 4085 2 1990 1991
M  V30 4086 1 1990 1997
M  V30 4087 1 1992 1993
M  V30 4088 1 1992 5183
M  V30 4089 1 1992 5184
M  V30 4090 1 1993 1994
M  V30 4091 1 1993 5185
M  V30 4092 1 1993 5186
M  V30 4093 2 1994 1995
M  V30 4094 1 1994 1996
M  V30 4095 1 1996 5187
M  V30 4096 1 1996 5188
M  V30 4097 1 1997 1998
M  V30 4098 1 1997 5189
M  V30 4099 1 1998 1999
M  V30 4100 1 1998 2001
M  V30 4101 1 1998 5190
M  V30 4102 2 1999 2000
M  V30 4103 1 1999 2005
M  V30 4104 1 2001 2002
M  V30 4105 1 2001 5191
M  V30 4106 1 2001 5192
M  V30 4107 1 2002 2003
M  V30 4108 1 2002 5193
M  V30 4109 1 2002 5194
M  V30 4110 1 2003 2004
M  V30 4111 1 2004 5195
M  V30 4112 1 2004 5196
M  V30 4113 1 2004 5197
M  V30 4114 1 2005 2006
M  V30 4115 1 2005 5198
M  V30 4116 1 2006 2007
M  V30 4117 1 2006 5199
M  V30 4118 1 2006 5200
M  V30 4119 2 2007 2008
M  V30 4120 1 2007 2009
M  V30 4121 1 2009 2010
M  V30 4122 1 2009 5201
M  V30 4123 1 2010 2011
M  V30 4124 1 2010 2013
M  V30 4125 1 2010 5202
M  V30 4126 2 2011 2012
M  V30 4127 1 2011 2018
M  V30 4128 1 2013 2014
M  V30 4129 1 2013 5203
M  V30 4130 1 2013 5204
M  V30 4131 1 2014 2015
M  V30 4132 1 2014 5205
M  V30 4133 1 2014 5206
M  V30 4134 2 2015 2016
M  V30 4135 1 2015 2017
M  V30 4136 1 2018 2019
M  V30 4137 1 2018 5207
M  V30 4138 1 2019 2020
M  V30 4139 1 2019 2022
M  V30 4140 1 2019 5208
M  V30 4141 2 2020 2021
M  V30 4142 1 2020 2025
M  V30 4143 1 2022 2023
M  V30 4144 1 2022 2024
M  V30 4145 1 2022 5209
M  V30 4146 1 2023 5210
M  V30 4147 1 2024 5211
M  V30 4148 1 2024 5212
M  V30 4149 1 2024 5213
M  V30 4150 1 2025 2026
M  V30 4151 1 2025 5214
M  V30 4152 1 2026 2027
M  V30 4153 1 2026 5215
M  V30 4154 1 2026 5216
M  V30 4155 2 2027 2028
M  V30 4156 1 2027 2029
M  V30 4157 1 2029 2030
M  V30 4158 1 2029 5217
M  V30 4159 1 2030 2031
M  V30 4160 1 2030 2033
M  V30 4161 1 2030 5218
M  V30 4162 2 2031 2032
M  V30 4163 1 2031 2036
M  V30 4164 1 2033 2034
M  V30 4165 1 2033 2035
M  V30 4166 1 2033 5219
M  V30 4167 1 2034 5220
M  V30 4168 1 2034 5221
M  V30 4169 1 2034 5222
M  V30 4170 1 2035 5223
M  V30 4171 1 2035 5224
M  V30 4172 1 2035 5225
M  V30 4173 1 2036 2037
M  V30 4174 1 2036 5226
M  V30 4175 1 2037 2038
M  V30 4176 1 2037 2040
M  V30 4177 1 2037 5227
M  V30 4178 2 2038 2039
M  V30 4179 1 2038 2041
M  V30 4180 1 2040 5228
M  V30 4181 1 2040 5229
M  V30 4182 1 2040 5230
M  V30 4183 1 2041 2042
M  V30 4184 1 2041 5231
M  V30 4185 1 2042 2043
M  V30 4186 1 2042 5232
M  V30 4187 1 2042 5233
M  V30 4188 2 2043 2044
M  V30 4189 1 2043 2045
M  V30 4190 1 2045 2046
M  V30 4191 1 2045 5234
M  V30 4192 1 2046 2047
M  V30 4193 1 2046 2049
M  V30 4194 1 2046 5235
M  V30 4195 2 2047 2048
M  V30 4196 1 2047 2056
M  V30 4197 1 2049 2050
M  V30 4198 1 2049 5236
M  V30 4199 1 2049 5237
M  V30 4200 2 2050 2051
M  V30 4201 1 2050 2052
M  V30 4202 1 2051 2053
M  V30 4203 1 2051 5238
M  V30 4204 2 2052 2054
M  V30 4205 1 2052 5239
M  V30 4206 2 2053 2055
M  V30 4207 1 2053 5240
M  V30 4208 1 2054 2055
M  V30 4209 1 2054 5241
M  V30 4210 1 2055 5242
M  V30 4211 1 2056 2057
M  V30 4212 1 2056 5243
M  V30 4213 1 2057 2058
M  V30 4214 1 2057 2060
M  V30 4215 1 2057 5244
M  V30 4216 2 2058 2059
M  V30 4217 1 2058 2063
M  V30 4218 1 2060 2061
M  V30 4219 1 2060 2062
M  V30 4220 1 2060 5245
M  V30 4221 1 2061 5246
M  V30 4222 1 2062 5247
M  V30 4223 1 2062 5248
M  V30 4224 1 2062 5249
M  V30 4225 1 2063 2064
M  V30 4226 1 2063 5250
M  V30 4227 1 2064 2065
M  V30 4228 1 2064 2067
M  V30 4229 1 2064 5251
M  V30 4230 2 2065 2066
M  V30 4231 1 2065 2071
M  V30 4232 1 2067 2068
M  V30 4233 1 2067 5252
M  V30 4234 1 2067 5253
M  V30 4235 2 2068 2069
M  V30 4236 1 2068 2070
M  V30 4237 1 2070 5254
M  V30 4238 1 2070 5255
M  V30 4239 1 2071 2072
M  V30 4240 1 2071 5256
M  V30 4241 1 2072 2073
M  V30 4242 1 2072 2075
M  V30 4243 1 2072 5257
M  V30 4244 2 2073 2074
M  V30 4245 1 2073 2077
M  V30 4246 1 2075 2076
M  V30 4247 1 2075 5258
M  V30 4248 1 2075 5259
M  V30 4249 1 2076 5260
M  V30 4250 1 2077 2078
M  V30 4251 1 2077 5261
M  V30 4252 1 2078 2079
M  V30 4253 1 2078 2081
M  V30 4254 1 2078 5262
M  V30 4255 2 2079 2080
M  V30 4256 1 2079 2085
M  V30 4257 1 2081 2082
M  V30 4258 1 2081 5263
M  V30 4259 1 2081 5264
M  V30 4260 1 2082 2083
M  V30 4261 1 2082 2084
M  V30 4262 1 2082 5265
M  V30 4263 1 2083 5266
M  V30 4264 1 2083 5267
M  V30 4265 1 2083 5268
M  V30 4266 1 2084 5269
M  V30 4267 1 2084 5270
M  V30 4268 1 2084 5271
M  V30 4269 1 2085 2086
M  V30 4270 1 2085 5272
M  V30 4271 1 2086 2087
M  V30 4272 1 2086 5273
M  V30 4273 1 2086 6695
M  V30 4274 2 2087 2088
M  V30 4275 1 2087 2089
M  V30 4276 1 2089 2090
M  V30 4277 1 2089 5274
M  V30 4278 1 2090 2091
M  V30 4279 1 2090 2093
M  V30 4280 1 2090 5275
M  V30 4281 2 2091 2092
M  V30 4282 1 2091 2097
M  V30 4283 1 2093 2094
M  V30 4284 1 2093 5276
M  V30 4285 1 2093 5277
M  V30 4286 1 2094 2095
M  V30 4287 1 2094 5278
M  V30 4288 1 2094 5279
M  V30 4289 1 2095 2096
M  V30 4290 1 2096 5280
M  V30 4291 1 2096 5281
M  V30 4292 1 2096 5282
M  V30 4293 1 2097 2098
M  V30 4294 1 2097 5283
M  V30 4295 1 2098 2099
M  V30 4296 1 2098 2101
M  V30 4297 1 2098 5284
M  V30 4298 2 2099 2100
M  V30 4299 1 2099 2105
M  V30 4300 1 2101 2102
M  V30 4301 1 2101 5285
M  V30 4302 1 2101 5286
M  V30 4303 1 2102 2103
M  V30 4304 1 2102 2104
M  V30 4305 1 2102 5287
M  V30 4306 1 2103 5288
M  V30 4307 1 2103 5289
M  V30 4308 1 2103 5290
M  V30 4309 1 2104 5291
M  V30 4310 1 2104 5292
M  V30 4311 1 2104 5293
M  V30 4312 1 2105 2106
M  V30 4313 1 2105 5294
M  V30 4314 1 2106 2107
M  V30 4315 1 2106 2109
M  V30 4316 1 2106 5295
M  V30 4317 2 2107 2108
M  V30 4318 1 2107 2114
M  V30 4319 1 2109 2110
M  V30 4320 1 2109 5296
M  V30 4321 1 2109 5297
M  V30 4322 1 2110 2111
M  V30 4323 1 2110 5298
M  V30 4324 1 2110 5299
M  V30 4325 2 2111 2112
M  V30 4326 1 2111 2113
M  V30 4327 1 2113 5300
M  V30 4328 1 2113 5301
M  V30 4329 1 2114 2115
M  V30 4330 1 2114 5302
M  V30 4331 1 2115 2116
M  V30 4332 1 2115 2118
M  V30 4333 1 2115 5303
M  V30 4334 2 2116 2117
M  V30 4335 1 2116 2123
M  V30 4336 1 2118 2119
M  V30 4337 1 2118 5304
M  V30 4338 1 2118 5305
M  V30 4339 1 2119 2120
M  V30 4340 1 2119 5306
M  V30 4341 1 2119 5307
M  V30 4342 2 2120 2121
M  V30 4343 1 2120 2122
M  V30 4344 1 2122 5308
M  V30 4345 1 2122 5309
M  V30 4346 1 2123 2124
M  V30 4347 1 2123 5310
M  V30 4348 1 2124 2125
M  V30 4349 1 2124 5311
M  V30 4350 1 2124 6713
M  V30 4351 2 2125 2126
M  V30 4352 1 2125 2127
M  V30 4353 1 2127 2128
M  V30 4354 1 2127 5312
M  V30 4355 1 2128 2129
M  V30 4356 1 2128 2131
M  V30 4357 1 2128 5313
M  V30 4358 2 2129 2130
M  V30 4359 1 2129 2138
M  V30 4360 1 2131 2132
M  V30 4361 1 2131 5314
M  V30 4362 1 2131 5315
M  V30 4363 1 2132 2133
M  V30 4364 1 2132 5316
M  V30 4365 1 2132 5317
M  V30 4366 1 2133 2134
M  V30 4367 1 2133 5318
M  V30 4368 1 2133 5319
M  V30 4369 1 2134 2135
M  V30 4370 1 2134 5320
M  V30 4371 1 2135 2136
M  V30 4372 2 2135 2137
M  V30 4373 1 2136 5321
M  V30 4374 1 2136 5322
M  V30 4375 1 2137 5323
M  V30 4376 1 2137 5324
M  V30 4377 1 2138 2139
M  V30 4378 1 2138 5325
M  V30 4379 1 2139 2140
M  V30 4380 1 2139 2142
M  V30 4381 1 2139 5326
M  V30 4382 2 2140 2141
M  V30 4383 1 2140 2152
M  V30 4384 1 2142 2143
M  V30 4385 1 2142 5327
M  V30 4386 1 2142 5328
M  V30 4387 2 2143 2144
M  V30 4388 1 2143 2145
M  V30 4389 1 2144 2146
M  V30 4390 1 2144 5329
M  V30 4391 2 2145 2147
M  V30 4392 1 2145 2148
M  V30 4393 1 2146 2147
M  V30 4394 1 2146 5330
M  V30 4395 1 2147 2149
M  V30 4396 2 2148 2150
M  V30 4397 1 2148 5331
M  V30 4398 2 2149 2151
M  V30 4399 1 2149 5332
M  V30 4400 1 2150 2151
M  V30 4401 1 2150 5333
M  V30 4402 1 2151 5334
M  V30 4403 1 2152 2153
M  V30 4404 1 2152 5335
M  V30 4405 1 2153 2154
M  V30 4406 1 2153 2156
M  V30 4407 1 2153 5336
M  V30 4408 2 2154 2155
M  V30 4409 1 2154 2160
M  V30 4410 1 2156 2157
M  V30 4411 1 2156 5337
M  V30 4412 1 2156 5338
M  V30 4413 2 2157 2158
M  V30 4414 1 2157 2159
M  V30 4415 1 2160 2161
M  V30 4416 1 2160 5339
M  V30 4417 1 2161 2162
M  V30 4418 1 2161 2164
M  V30 4419 1 2161 5340
M  V30 4420 2 2162 2163
M  V30 4421 1 2162 2169
M  V30 4422 1 2164 2165
M  V30 4423 1 2164 5341
M  V30 4424 1 2164 5342
M  V30 4425 1 2165 2166
M  V30 4426 1 2165 5343
M  V30 4427 1 2165 5344
M  V30 4428 2 2166 2167
M  V30 4429 1 2166 2168
M  V30 4430 1 2169 2170
M  V30 4431 1 2169 5345
M  V30 4432 1 2170 2171
M  V30 4433 1 2170 2173
M  V30 4434 1 2170 5346
M  V30 4435 2 2171 2172
M  V30 4436 1 2171 2174
M  V30 4437 1 2173 5347
M  V30 4438 1 2173 5348
M  V30 4439 1 2173 5349
M  V30 4440 1 2174 2175
M  V30 4441 1 2174 5350
M  V30 4442 1 2175 2176
M  V30 4443 1 2175 2178
M  V30 4444 1 2175 5351
M  V30 4445 2 2176 2177
M  V30 4446 1 2176 2179
M  V30 4447 1 2178 5352
M  V30 4448 1 2178 5353
M  V30 4449 1 2178 5354
M  V30 4450 1 2179 2180
M  V30 4451 1 2179 5355
M  V30 4452 1 2180 2181
M  V30 4453 1 2180 2183
M  V30 4454 1 2180 5356
M  V30 4455 2 2181 2182
M  V30 4456 1 2181 2186
M  V30 4457 1 2183 2184
M  V30 4458 1 2183 2185
M  V30 4459 1 2183 5357
M  V30 4460 1 2184 5358
M  V30 4461 1 2184 5359
M  V30 4462 1 2184 5360
M  V30 4463 1 2185 5361
M  V30 4464 1 2185 5362
M  V30 4465 1 2185 5363
M  V30 4466 1 2186 2187
M  V30 4467 1 2186 5364
M  V30 4468 1 2187 2188
M  V30 4469 1 2187 2190
M  V30 4470 1 2187 5365
M  V30 4471 2 2188 2189
M  V30 4472 1 2188 2194
M  V30 4473 1 2190 2191
M  V30 4474 1 2190 5366
M  V30 4475 1 2190 5367
M  V30 4476 2 2191 2192
M  V30 4477 1 2191 2193
M  V30 4478 1 2193 5368
M  V30 4479 1 2193 5369
M  V30 4480 1 2194 2195
M  V30 4481 1 2194 5370
M  V30 4482 1 2195 2196
M  V30 4483 1 2195 2198
M  V30 4484 1 2195 5371
M  V30 4485 2 2196 2197
M  V30 4486 1 2196 2202
M  V30 4487 1 2198 2199
M  V30 4488 1 2198 5372
M  V30 4489 1 2198 5373
M  V30 4490 1 2199 2200
M  V30 4491 1 2199 2201
M  V30 4492 1 2199 5374
M  V30 4493 1 2200 5375
M  V30 4494 1 2200 5376
M  V30 4495 1 2200 5377
M  V30 4496 1 2201 5378
M  V30 4497 1 2201 5379
M  V30 4498 1 2201 5380
M  V30 4499 1 2202 2203
M  V30 4500 1 2202 5381
M  V30 4501 1 2203 2204
M  V30 4502 1 2203 2206
M  V30 4503 1 2203 5382
M  V30 4504 2 2204 2205
M  V30 4505 1 2204 2207
M  V30 4506 1 2206 5383
M  V30 4507 1 2206 5384
M  V30 4508 1 2206 5385
M  V30 4509 1 2207 2208
M  V30 4510 1 2207 5386
M  V30 4511 1 2208 2209
M  V30 4512 1 2208 2211
M  V30 4513 1 2208 5387
M  V30 4514 2 2209 2210
M  V30 4515 1 2209 2216
M  V30 4516 1 2211 2212
M  V30 4517 1 2211 5388
M  V30 4518 1 2211 5389
M  V30 4519 1 2212 2213
M  V30 4520 1 2212 5390
M  V30 4521 1 2212 5391
M  V30 4522 1 2213 2214
M  V30 4523 1 2213 5392
M  V30 4524 1 2213 5393
M  V30 4525 1 2214 2215
M  V30 4526 1 2214 5394
M  V30 4527 1 2214 5395
M  V30 4528 1 2215 5396
M  V30 4529 1 2215 5397
M  V30 4530 1 2215 5398
M  V30 4531 1 2216 2217
M  V30 4532 1 2216 5399
M  V30 4533 1 2217 2218
M  V30 4534 1 2217 2220
M  V30 4535 1 2217 5400
M  V30 4536 2 2218 2219
M  V30 4537 1 2218 2222
M  V30 4538 1 2220 2221
M  V30 4539 1 2220 5401
M  V30 4540 1 2220 5402
M  V30 4541 1 2221 5403
M  V30 4542 1 2222 2223
M  V30 4543 1 2222 5404
M  V30 4544 1 2223 2224
M  V30 4545 1 2223 2226
M  V30 4546 1 2223 5405
M  V30 4547 2 2224 2225
M  V30 4548 1 2224 2233
M  V30 4549 1 2226 2227
M  V30 4550 1 2226 5406
M  V30 4551 1 2226 5407
M  V30 4552 1 2227 2228
M  V30 4553 1 2227 5408
M  V30 4554 1 2227 5409
M  V30 4555 1 2228 2229
M  V30 4556 1 2228 5410
M  V30 4557 1 2228 5411
M  V30 4558 1 2229 2230
M  V30 4559 1 2229 5412
M  V30 4560 1 2230 2231
M  V30 4561 2 2230 2232
M  V30 4562 1 2231 5413
M  V30 4563 1 2231 5414
M  V30 4564 1 2232 5415
M  V30 4565 1 2232 5416
M  V30 4566 1 2233 2234
M  V30 4567 1 2233 5417
M  V30 4568 1 2234 2235
M  V30 4569 1 2234 2237
M  V30 4570 1 2234 5418
M  V30 4571 2 2235 2236
M  V30 4572 1 2235 2247
M  V30 4573 1 2237 2238
M  V30 4574 1 2237 5419
M  V30 4575 1 2237 5420
M  V30 4576 2 2238 2239
M  V30 4577 1 2238 2240
M  V30 4578 1 2239 2241
M  V30 4579 1 2239 5421
M  V30 4580 2 2240 2242
M  V30 4581 1 2240 2243
M  V30 4582 1 2241 2242
M  V30 4583 1 2241 5422
M  V30 4584 1 2242 2244
M  V30 4585 2 2243 2245
M  V30 4586 1 2243 5423
M  V30 4587 2 2244 2246
M  V30 4588 1 2244 5424
M  V30 4589 1 2245 2246
M  V30 4590 1 2245 5425
M  V30 4591 1 2246 5426
M  V30 4592 1 2247 2248
M  V30 4593 1 2247 5427
M  V30 4594 1 2248 2249
M  V30 4595 1 2248 2251
M  V30 4596 1 2248 5428
M  V30 4597 2 2249 2250
M  V30 4598 1 2249 2259
M  V30 4599 1 2251 2252
M  V30 4600 1 2251 5429
M  V30 4601 1 2251 5430
M  V30 4602 2 2252 2253
M  V30 4603 1 2252 2254
M  V30 4604 1 2253 2255
M  V30 4605 1 2253 5431
M  V30 4606 2 2254 2256
M  V30 4607 1 2254 5432
M  V30 4608 2 2255 2257
M  V30 4609 1 2255 5433
M  V30 4610 1 2256 2257
M  V30 4611 1 2256 5434
M  V30 4612 1 2257 2258
M  V30 4613 1 2258 5435
M  V30 4614 1 2259 2260
M  V30 4615 1 2259 5436
M  V30 4616 1 2260 2261
M  V30 4617 1 2260 2263
M  V30 4618 1 2260 5437
M  V30 4619 2 2261 2262
M  V30 4620 1 2261 2267
M  V30 4621 1 2263 2264
M  V30 4622 1 2263 5438
M  V30 4623 1 2263 5439
M  V30 4624 2 2264 2265
M  V30 4625 1 2264 2266
M  V30 4626 1 2266 5440
M  V30 4627 1 2266 5441
M  V30 4628 1 2267 2268
M  V30 4629 1 2267 5442
M  V30 4630 1 2268 2269
M  V30 4631 1 2268 2271
M  V30 4632 1 2268 5443
M  V30 4633 2 2269 2270
M  V30 4634 1 2269 2276
M  V30 4635 1 2271 2272
M  V30 4636 1 2271 5444
M  V30 4637 1 2271 5445
M  V30 4638 1 2272 2273
M  V30 4639 1 2272 5446
M  V30 4640 1 2272 5447
M  V30 4641 2 2273 2274
M  V30 4642 1 2273 2275
M  V30 4643 1 2275 5448
M  V30 4644 1 2275 5449
M  V30 4645 1 2276 2277
M  V30 4646 1 2276 5450
M  V30 4647 1 2277 2278
M  V30 4648 1 2277 2280
M  V30 4649 1 2277 5451
M  V30 4650 2 2278 2279
M  V30 4651 1 2278 2283
M  V30 4652 1 2280 2281
M  V30 4653 1 2280 2282
M  V30 4654 1 2280 5452
M  V30 4655 1 2281 5453
M  V30 4656 1 2282 5454
M  V30 4657 1 2282 5455
M  V30 4658 1 2282 5456
M  V30 4659 1 2283 2284
M  V30 4660 1 2283 2289
M  V30 4661 1 2284 2285
M  V30 4662 1 2284 2287
M  V30 4663 1 2284 5457
M  V30 4664 2 2285 2286
M  V30 4665 1 2285 2290
M  V30 4666 1 2287 2288
M  V30 4667 1 2287 5458
M  V30 4668 1 2287 5459
M  V30 4669 1 2288 2289
M  V30 4670 1 2288 5460
M  V30 4671 1 2288 5461
M  V30 4672 1 2289 5462
M  V30 4673 1 2289 5463
M  V30 4674 1 2290 2291
M  V30 4675 1 2290 5464
M  V30 4676 1 2291 2292
M  V30 4677 1 2291 2294
M  V30 4678 1 2291 5465
M  V30 4679 2 2292 2293
M  V30 4680 1 2292 2298
M  V30 4681 1 2294 2295
M  V30 4682 1 2294 5466
M  V30 4683 1 2294 5467
M  V30 4684 2 2295 2296
M  V30 4685 1 2295 2297
M  V30 4686 1 2297 5468
M  V30 4687 1 2297 5469
M  V30 4688 1 2298 2299
M  V30 4689 1 2298 5470
M  V30 4690 1 2299 2300
M  V30 4691 1 2299 2302
M  V30 4692 1 2299 5471
M  V30 4693 2 2300 2301
M  V30 4694 1 2300 2309
M  V30 4695 1 2302 2303
M  V30 4696 1 2302 5472
M  V30 4697 1 2302 5473
M  V30 4698 1 2303 2304
M  V30 4699 1 2303 5474
M  V30 4700 1 2303 5475
M  V30 4701 1 2304 2305
M  V30 4702 1 2304 5476
M  V30 4703 1 2304 5477
M  V30 4704 1 2305 2306
M  V30 4705 1 2305 5478
M  V30 4706 1 2306 2307
M  V30 4707 2 2306 2308
M  V30 4708 1 2307 5479
M  V30 4709 1 2307 5480
M  V30 4710 1 2308 5481
M  V30 4711 1 2308 5482
M  V30 4712 1 2309 2310
M  V30 4713 1 2309 5483
M  V30 4714 1 2310 2311
M  V30 4715 1 2310 2313
M  V30 4716 1 2310 5484
M  V30 4717 2 2311 2312
M  V30 4718 1 2311 2314
M  V30 4719 1 2313 5485
M  V30 4720 1 2313 5486
M  V30 4721 1 2313 5487
M  V30 4722 1 2314 2315
M  V30 4723 1 2314 5488
M  V30 4724 1 2315 2316
M  V30 4725 1 2315 2318
M  V30 4726 1 2315 5489
M  V30 4727 2 2316 2317
M  V30 4728 1 2316 2323
M  V30 4729 1 2318 2319
M  V30 4730 1 2318 5490
M  V30 4731 1 2318 5491
M  V30 4732 1 2319 2320
M  V30 4733 1 2319 5492
M  V30 4734 1 2319 5493
M  V30 4735 1 2320 2321
M  V30 4736 1 2320 5494
M  V30 4737 1 2320 5495
M  V30 4738 1 2321 2322
M  V30 4739 1 2321 5496
M  V30 4740 1 2321 5497
M  V30 4741 1 2322 5498
M  V30 4742 1 2322 5499
M  V30 4743 1 2322 5500
M  V30 4744 1 2323 2324
M  V30 4745 1 2323 5501
M  V30 4746 1 2324 2325
M  V30 4747 1 2324 2327
M  V30 4748 1 2324 5502
M  V30 4749 2 2325 2326
M  V30 4750 1 2325 2334
M  V30 4751 1 2327 2328
M  V30 4752 1 2327 5503
M  V30 4753 1 2327 5504
M  V30 4754 1 2328 2329
M  V30 4755 1 2328 5505
M  V30 4756 1 2328 5506
M  V30 4757 1 2329 2330
M  V30 4758 1 2329 5507
M  V30 4759 1 2329 5508
M  V30 4760 1 2330 2331
M  V30 4761 1 2330 5509
M  V30 4762 1 2331 2332
M  V30 4763 2 2331 2333
M  V30 4764 1 2332 5510
M  V30 4765 1 2332 5511
M  V30 4766 1 2333 5512
M  V30 4767 1 2333 5513
M  V30 4768 1 2334 2335
M  V30 4769 1 2334 5514
M  V30 4770 1 2335 2336
M  V30 4771 1 2335 2338
M  V30 4772 1 2335 5515
M  V30 4773 2 2336 2337
M  V30 4774 1 2336 2341
M  V30 4775 1 2338 2339
M  V30 4776 1 2338 2340
M  V30 4777 1 2338 5516
M  V30 4778 1 2339 5517
M  V30 4779 1 2339 5518
M  V30 4780 1 2339 5519
M  V30 4781 1 2340 5520
M  V30 4782 1 2340 5521
M  V30 4783 1 2340 5522
M  V30 4784 1 2341 2342
M  V30 4785 1 2341 5523
M  V30 4786 1 2342 2343
M  V30 4787 1 2342 2345
M  V30 4788 1 2342 5524
M  V30 4789 2 2343 2344
M  V30 4790 1 2343 2349
M  V30 4791 1 2345 2346
M  V30 4792 1 2345 2347
M  V30 4793 1 2345 5525
M  V30 4794 1 2346 2348
M  V30 4795 1 2346 5526
M  V30 4796 1 2346 5527
M  V30 4797 1 2347 5528
M  V30 4798 1 2347 5529
M  V30 4799 1 2347 5530
M  V30 4800 1 2348 5531
M  V30 4801 1 2348 5532
M  V30 4802 1 2348 5533
M  V30 4803 1 2349 2350
M  V30 4804 1 2349 5534
M  V30 4805 1 2350 2351
M  V30 4806 1 2350 2353
M  V30 4807 1 2350 5535
M  V30 4808 2 2351 2352
M  V30 4809 1 2351 2356
M  V30 4810 1 2353 2354
M  V30 4811 1 2353 2355
M  V30 4812 1 2353 5536
M  V30 4813 1 2354 5537
M  V30 4814 1 2355 5538
M  V30 4815 1 2355 5539
M  V30 4816 1 2355 5540
M  V30 4817 1 2356 2357
M  V30 4818 1 2356 5541
M  V30 4819 1 2357 2358
M  V30 4820 1 2357 2360
M  V30 4821 1 2357 5542
M  V30 4822 2 2358 2359
M  V30 4823 1 2358 2363
M  V30 4824 1 2360 2361
M  V30 4825 1 2360 2362
M  V30 4826 1 2360 5543
M  V30 4827 1 2361 5544
M  V30 4828 1 2362 5545
M  V30 4829 1 2362 5546
M  V30 4830 1 2362 5547
M  V30 4831 1 2363 2364
M  V30 4832 1 2363 5548
M  V30 4833 1 2364 2365
M  V30 4834 1 2364 2367
M  V30 4835 1 2364 5549
M  V30 4836 2 2365 2366
M  V30 4837 1 2365 2374
M  V30 4838 1 2367 2368
M  V30 4839 1 2367 5550
M  V30 4840 1 2367 5551
M  V30 4841 2 2368 2369
M  V30 4842 1 2368 2370
M  V30 4843 1 2369 2371
M  V30 4844 1 2369 5552
M  V30 4845 2 2370 2372
M  V30 4846 1 2370 5553
M  V30 4847 2 2371 2373
M  V30 4848 1 2371 5554
M  V30 4849 1 2372 2373
M  V30 4850 1 2372 5555
M  V30 4851 1 2373 5556
M  V30 4852 1 2374 2375
M  V30 4853 1 2374 5557
M  V30 4854 1 2375 2376
M  V30 4855 1 2375 2378
M  V30 4856 1 2375 5558
M  V30 4857 2 2376 2377
M  V30 4858 1 2376 2385
M  V30 4859 1 2378 2379
M  V30 4860 1 2378 5559
M  V30 4861 1 2378 5560
M  V30 4862 1 2379 2380
M  V30 4863 1 2379 5561
M  V30 4864 1 2379 5562
M  V30 4865 1 2380 2381
M  V30 4866 1 2380 5563
M  V30 4867 1 2380 5564
M  V30 4868 1 2381 2382
M  V30 4869 1 2381 5565
M  V30 4870 1 2382 2383
M  V30 4871 2 2382 2384
M  V30 4872 1 2383 5566
M  V30 4873 1 2383 5567
M  V30 4874 1 2384 5568
M  V30 4875 1 2384 5569
M  V30 4876 1 2385 2386
M  V30 4877 1 2385 5570
M  V30 4878 1 2386 2387
M  V30 4879 1 2386 2389
M  V30 4880 1 2386 5571
M  V30 4881 2 2387 2388
M  V30 4882 1 2387 2392
M  V30 4883 1 2389 2390
M  V30 4884 1 2389 2391
M  V30 4885 1 2389 5572
M  V30 4886 1 2390 5573
M  V30 4887 1 2391 5574
M  V30 4888 1 2391 5575
M  V30 4889 1 2391 5576
M  V30 4890 1 2392 2393
M  V30 4891 1 2392 5577
M  V30 4892 1 2393 2394
M  V30 4893 1 2393 5578
M  V30 4894 1 2393 5579
M  V30 4895 2 2394 2395
M  V30 4896 1 2394 2396
M  V30 4897 1 2396 2397
M  V30 4898 1 2396 5580
M  V30 4899 1 2397 2398
M  V30 4900 1 2397 2400
M  V30 4901 1 2397 5581
M  V30 4902 2 2398 2399
M  V30 4903 1 2398 2403
M  V30 4904 1 2400 2401
M  V30 4905 1 2400 2402
M  V30 4906 1 2400 5582
M  V30 4907 1 2401 5583
M  V30 4908 1 2402 5584
M  V30 4909 1 2402 5585
M  V30 4910 1 2402 5586
M  V30 4911 1 2403 2404
M  V30 4912 1 2403 5587
M  V30 4913 1 2404 2405
M  V30 4914 1 2404 2407
M  V30 4915 1 2404 5588
M  V30 4916 2 2405 2406
M  V30 4917 1 2405 2417
M  V30 4918 1 2407 2408
M  V30 4919 1 2407 5589
M  V30 4920 1 2407 5590
M  V30 4921 2 2408 2409
M  V30 4922 1 2408 2410
M  V30 4923 1 2409 2411
M  V30 4924 1 2409 5591
M  V30 4925 2 2410 2412
M  V30 4926 1 2410 2413
M  V30 4927 1 2411 2412
M  V30 4928 1 2411 5592
M  V30 4929 1 2412 2414
M  V30 4930 2 2413 2415
M  V30 4931 1 2413 5593
M  V30 4932 2 2414 2416
M  V30 4933 1 2414 5594
M  V30 4934 1 2415 2416
M  V30 4935 1 2415 5595
M  V30 4936 1 2416 5596
M  V30 4937 1 2417 2418
M  V30 4938 1 2417 5597
M  V30 4939 1 2418 2419
M  V30 4940 1 2418 2421
M  V30 4941 1 2418 5598
M  V30 4942 2 2419 2420
M  V30 4943 1 2419 2425
M  V30 4944 1 2421 2422
M  V30 4945 1 2421 5599
M  V30 4946 1 2421 5600
M  V30 4947 2 2422 2423
M  V30 4948 1 2422 2424
M  V30 4949 1 2425 2426
M  V30 4950 1 2425 5601
M  V30 4951 1 2426 2427
M  V30 4952 1 2426 2429
M  V30 4953 1 2426 5602
M  V30 4954 2 2427 2428
M  V30 4955 1 2427 2430
M  V30 4956 1 2429 5603
M  V30 4957 1 2429 5604
M  V30 4958 1 2429 5605
M  V30 4959 1 2430 2431
M  V30 4960 1 2430 5606
M  V30 4961 1 2431 2432
M  V30 4962 1 2431 2434
M  V30 4963 1 2431 5607
M  V30 4964 2 2432 2433
M  V30 4965 1 2432 2442
M  V30 4966 1 2434 2435
M  V30 4967 1 2434 5608
M  V30 4968 1 2434 5609
M  V30 4969 2 2435 2436
M  V30 4970 1 2435 2437
M  V30 4971 1 2436 2438
M  V30 4972 1 2436 5610
M  V30 4973 2 2437 2439
M  V30 4974 1 2437 5611
M  V30 4975 2 2438 2440
M  V30 4976 1 2438 5612
M  V30 4977 1 2439 2440
M  V30 4978 1 2439 5613
M  V30 4979 1 2440 2441
M  V30 4980 1 2441 5614
M  V30 4981 1 2442 2443
M  V30 4982 1 2442 5615
M  V30 4983 1 2443 2444
M  V30 4984 1 2443 2446
M  V30 4985 1 2443 5616
M  V30 4986 2 2444 2445
M  V30 4987 1 2444 2450
M  V30 4988 1 2446 2447
M  V30 4989 1 2446 5617
M  V30 4990 1 2446 5618
M  V30 4991 1 2447 2448
M  V30 4992 1 2447 2449
M  V30 4993 1 2447 5619
M  V30 4994 1 2448 5620
M  V30 4995 1 2448 5621
M  V30 4996 1 2448 5622
M  V30 4997 1 2449 5623
M  V30 4998 1 2449 5624
M  V30 4999 1 2449 5625
M  V30 5000 1 2450 2451
M  V30 5001 1 2450 5626
M  V30 5002 1 2451 2452
M  V30 5003 1 2451 2454
M  V30 5004 1 2451 5627
M  V30 5005 2 2452 2453
M  V30 5006 1 2452 2458
M  V30 5007 1 2454 2455
M  V30 5008 1 2454 5628
M  V30 5009 1 2454 5629
M  V30 5010 2 2455 2456
M  V30 5011 1 2455 2457
M  V30 5012 1 2457 5630
M  V30 5013 1 2457 5631
M  V30 5014 1 2458 2459
M  V30 5015 1 2458 5632
M  V30 5016 1 2459 2460
M  V30 5017 1 2459 2462
M  V30 5018 1 2459 5633
M  V30 5019 2 2460 2461
M  V30 5020 1 2460 2466
M  V30 5021 1 2462 2463
M  V30 5022 1 2462 5634
M  V30 5023 1 2462 5635
M  V30 5024 2 2463 2464
M  V30 5025 1 2463 2465
M  V30 5026 1 2466 2467
M  V30 5027 1 2466 5636
M  V30 5028 1 2467 2468
M  V30 5029 1 2467 2470
M  V30 5030 1 2467 5637
M  V30 5031 2 2468 2469
M  V30 5032 1 2468 2476
M  V30 5033 1 2470 2471
M  V30 5034 1 2470 5638
M  V30 5035 1 2470 5639
M  V30 5036 1 2471 2472
M  V30 5037 2 2471 2473
M  V30 5038 1 2472 2474
M  V30 5039 1 2472 5640
M  V30 5040 1 2473 2475
M  V30 5041 1 2473 5641
M  V30 5042 2 2474 2475
M  V30 5043 1 2474 5642
M  V30 5044 1 2476 2477
M  V30 5045 1 2476 5643
M  V30 5046 1 2477 2478
M  V30 5047 1 2477 2480
M  V30 5048 1 2477 5644
M  V30 5049 2 2478 2479
M  V30 5050 1 2478 2484
M  V30 5051 1 2480 2481
M  V30 5052 1 2480 5645
M  V30 5053 1 2480 5646
M  V30 5054 1 2481 2482
M  V30 5055 1 2481 2483
M  V30 5056 1 2481 5647
M  V30 5057 1 2482 5648
M  V30 5058 1 2482 5649
M  V30 5059 1 2482 5650
M  V30 5060 1 2483 5651
M  V30 5061 1 2483 5652
M  V30 5062 1 2483 5653
M  V30 5063 1 2484 2485
M  V30 5064 1 2484 5654
M  V30 5065 1 2485 2486
M  V30 5066 1 2485 2488
M  V30 5067 1 2485 5655
M  V30 5068 2 2486 2487
M  V30 5069 1 2486 2493
M  V30 5070 1 2488 2489
M  V30 5071 1 2488 5656
M  V30 5072 1 2488 5657
M  V30 5073 1 2489 2490
M  V30 5074 1 2489 5658
M  V30 5075 1 2489 5659
M  V30 5076 1 2490 2491
M  V30 5077 1 2490 5660
M  V30 5078 1 2490 5661
M  V30 5079 1 2491 2492
M  V30 5080 1 2491 5662
M  V30 5081 1 2491 5663
M  V30 5082 1 2492 5664
M  V30 5083 1 2492 5665
M  V30 5084 1 2492 5666
M  V30 5085 1 2493 2494
M  V30 5086 1 2493 5667
M  V30 5087 1 2494 2495
M  V30 5088 1 2494 2497
M  V30 5089 1 2494 5668
M  V30 5090 2 2495 2496
M  V30 5091 1 2495 2502
M  V30 5092 1 2497 2498
M  V30 5093 1 2497 5669
M  V30 5094 1 2497 5670
M  V30 5095 1 2498 2499
M  V30 5096 1 2498 5671
M  V30 5097 1 2498 5672
M  V30 5098 2 2499 2500
M  V30 5099 1 2499 2501
M  V30 5100 1 2501 5673
M  V30 5101 1 2501 5674
M  V30 5102 1 2502 2503
M  V30 5103 1 2502 5675
M  V30 5104 1 2503 2504
M  V30 5105 1 2503 2506
M  V30 5106 1 2503 5676
M  V30 5107 2 2504 2505
M  V30 5108 1 2504 2513
M  V30 5109 1 2506 2507
M  V30 5110 1 2506 5677
M  V30 5111 1 2506 5678
M  V30 5112 1 2507 2508
M  V30 5113 1 2507 5679
M  V30 5114 1 2507 5680
M  V30 5115 1 2508 2509
M  V30 5116 1 2508 5681
M  V30 5117 1 2508 5682
M  V30 5118 1 2509 2510
M  V30 5119 1 2509 5683
M  V30 5120 1 2510 2511
M  V30 5121 2 2510 2512
M  V30 5122 1 2511 5684
M  V30 5123 1 2511 5685
M  V30 5124 1 2512 5686
M  V30 5125 1 2512 5687
M  V30 5126 1 2513 2514
M  V30 5127 1 2513 5688
M  V30 5128 1 2514 2515
M  V30 5129 1 2514 5689
M  V30 5130 1 2514 6531
M  V30 5131 2 2515 2516
M  V30 5132 1 2515 2517
M  V30 5133 1 2517 2518
M  V30 5134 1 2517 5690
M  V30 5135 1 2518 2519
M  V30 5136 1 2518 2521
M  V30 5137 1 2518 5691
M  V30 5138 2 2519 2520
M  V30 5139 1 2519 2526
M  V30 5140 1 2521 2522
M  V30 5141 1 2521 5692
M  V30 5142 1 2521 5693
M  V30 5143 1 2522 2523
M  V30 5144 1 2522 5694
M  V30 5145 1 2522 5695
M  V30 5146 2 2523 2524
M  V30 5147 1 2523 2525
M  V30 5148 1 2526 2527
M  V30 5149 1 2526 5696
M  V30 5150 1 2527 2528
M  V30 5151 1 2527 2530
M  V30 5152 1 2527 5697
M  V30 5153 2 2528 2529
M  V30 5154 1 2528 2533
M  V30 5155 1 2530 2531
M  V30 5156 1 2530 2532
M  V30 5157 1 2530 5698
M  V30 5158 1 2531 5699
M  V30 5159 1 2531 5700
M  V30 5160 1 2531 5701
M  V30 5161 1 2532 5702
M  V30 5162 1 2532 5703
M  V30 5163 1 2532 5704
M  V30 5164 1 2533 2534
M  V30 5165 1 2533 5705
M  V30 5166 1 2534 2535
M  V30 5167 1 2534 2537
M  V30 5168 1 2534 5706
M  V30 5169 2 2535 2536
M  V30 5170 1 2535 2538
M  V30 5171 1 2537 5707
M  V30 5172 1 2537 5708
M  V30 5173 1 2537 5709
M  V30 5174 1 2538 2539
M  V30 5175 1 2538 5710
M  V30 5176 1 2539 2540
M  V30 5177 1 2539 2542
M  V30 5178 1 2539 5711
M  V30 5179 2 2540 2541
M  V30 5180 1 2540 2547
M  V30 5181 1 2542 2543
M  V30 5182 1 2542 5712
M  V30 5183 1 2542 5713
M  V30 5184 1 2543 2544
M  V30 5185 1 2543 5714
M  V30 5186 1 2543 5715
M  V30 5187 1 2544 2545
M  V30 5188 1 2544 5716
M  V30 5189 1 2544 5717
M  V30 5190 1 2545 2546
M  V30 5191 1 2545 5718
M  V30 5192 1 2545 5719
M  V30 5193 1 2546 5720
M  V30 5194 1 2546 5721
M  V30 5195 1 2546 5722
M  V30 5196 1 2547 2548
M  V30 5197 1 2547 5723
M  V30 5198 1 2548 2549
M  V30 5199 1 2548 2551
M  V30 5200 1 2548 5724
M  V30 5201 2 2549 2550
M  V30 5202 1 2549 2554
M  V30 5203 1 2551 2552
M  V30 5204 1 2551 2553
M  V30 5205 1 2551 5725
M  V30 5206 1 2552 5726
M  V30 5207 1 2553 5727
M  V30 5208 1 2553 5728
M  V30 5209 1 2553 5729
M  V30 5210 1 2554 2555
M  V30 5211 1 2554 5730
M  V30 5212 1 2555 2556
M  V30 5213 1 2555 2558
M  V30 5214 1 2555 5731
M  V30 5215 2 2556 2557
M  V30 5216 1 2556 2561
M  V30 5217 1 2558 2559
M  V30 5218 1 2558 2560
M  V30 5219 1 2558 5732
M  V30 5220 1 2559 5733
M  V30 5221 1 2559 5734
M  V30 5222 1 2559 5735
M  V30 5223 1 2560 5736
M  V30 5224 1 2560 5737
M  V30 5225 1 2560 5738
M  V30 5226 1 2561 2562
M  V30 5227 1 2561 5739
M  V30 5228 1 2562 2563
M  V30 5229 1 2562 2565
M  V30 5230 1 2562 5740
M  V30 5231 2 2563 2564
M  V30 5232 1 2563 2572
M  V30 5233 1 2565 2566
M  V30 5234 1 2565 5741
M  V30 5235 1 2565 5742
M  V30 5236 2 2566 2567
M  V30 5237 1 2566 2568
M  V30 5238 1 2567 2569
M  V30 5239 1 2567 5743
M  V30 5240 2 2568 2570
M  V30 5241 1 2568 5744
M  V30 5242 2 2569 2571
M  V30 5243 1 2569 5745
M  V30 5244 1 2570 2571
M  V30 5245 1 2570 5746
M  V30 5246 1 2571 5747
M  V30 5247 1 2572 2573
M  V30 5248 1 2572 5748
M  V30 5249 1 2573 2574
M  V30 5250 1 2573 2576
M  V30 5251 1 2573 5749
M  V30 5252 2 2574 2575
M  V30 5253 1 2574 2578
M  V30 5254 1 2576 2577
M  V30 5255 1 2576 5750
M  V30 5256 1 2576 5751
M  V30 5257 1 2577 5752
M  V30 5258 1 2578 2579
M  V30 5259 1 2578 5753
M  V30 5260 1 2579 2580
M  V30 5261 1 2579 2582
M  V30 5262 1 2579 5754
M  V30 5263 2 2580 2581
M  V30 5264 1 2580 2586
M  V30 5265 1 2582 2583
M  V30 5266 1 2582 5755
M  V30 5267 1 2582 5756
M  V30 5268 1 2583 2584
M  V30 5269 1 2583 2585
M  V30 5270 1 2583 5757
M  V30 5271 1 2584 5758
M  V30 5272 1 2584 5759
M  V30 5273 1 2584 5760
M  V30 5274 1 2585 5761
M  V30 5275 1 2585 5762
M  V30 5276 1 2585 5763
M  V30 5277 1 2586 2587
M  V30 5278 1 2586 5764
M  V30 5279 1 2587 2588
M  V30 5280 1 2587 2590
M  V30 5281 1 2587 5765
M  V30 5282 2 2588 2589
M  V30 5283 1 2588 2593
M  V30 5284 1 2590 2591
M  V30 5285 1 2590 2592
M  V30 5286 1 2590 5766
M  V30 5287 1 2591 5767
M  V30 5288 1 2591 5768
M  V30 5289 1 2591 5769
M  V30 5290 1 2592 5770
M  V30 5291 1 2592 5771
M  V30 5292 1 2592 5772
M  V30 5293 1 2593 2594
M  V30 5294 1 2593 5773
M  V30 5295 1 2594 2595
M  V30 5296 1 2594 2597
M  V30 5297 1 2594 5774
M  V30 5298 2 2595 2596
M  V30 5299 1 2595 2601
M  V30 5300 1 2597 2598
M  V30 5301 1 2597 5775
M  V30 5302 1 2597 5776
M  V30 5303 1 2598 2599
M  V30 5304 1 2598 2600
M  V30 5305 1 2598 5777
M  V30 5306 1 2599 5778
M  V30 5307 1 2599 5779
M  V30 5308 1 2599 5780
M  V30 5309 1 2600 5781
M  V30 5310 1 2600 5782
M  V30 5311 1 2600 5783
M  V30 5312 1 2601 2602
M  V30 5313 1 2601 5784
M  V30 5314 1 2602 2603
M  V30 5315 1 2602 2605
M  V30 5316 1 2602 5785
M  V30 5317 2 2603 2604
M  V30 5318 1 2603 2608
M  V30 5319 1 2605 2606
M  V30 5320 1 2605 2607
M  V30 5321 1 2605 5786
M  V30 5322 1 2606 5787
M  V30 5323 1 2606 5788
M  V30 5324 1 2606 5789
M  V30 5325 1 2607 5790
M  V30 5326 1 2607 5791
M  V30 5327 1 2607 5792
M  V30 5328 1 2608 2609
M  V30 5329 1 2608 5793
M  V30 5330 1 2609 2610
M  V30 5331 1 2609 2612
M  V30 5332 1 2609 5794
M  V30 5333 2 2610 2611
M  V30 5334 1 2610 2619
M  V30 5335 1 2612 2613
M  V30 5336 1 2612 5795
M  V30 5337 1 2612 5796
M  V30 5338 2 2613 2614
M  V30 5339 1 2613 2615
M  V30 5340 1 2614 2616
M  V30 5341 1 2614 5797
M  V30 5342 2 2615 2617
M  V30 5343 1 2615 5798
M  V30 5344 2 2616 2618
M  V30 5345 1 2616 5799
M  V30 5346 1 2617 2618
M  V30 5347 1 2617 5800
M  V30 5348 1 2618 5801
M  V30 5349 1 2619 2620
M  V30 5350 1 2619 5802
M  V30 5351 1 2620 2621
M  V30 5352 1 2620 2623
M  V30 5353 1 2620 5803
M  V30 5354 2 2621 2622
M  V30 5355 1 2621 2624
M  V30 5356 1 2623 5804
M  V30 5357 1 2623 5805
M  V30 5358 1 2623 5806
M  V30 5359 1 2624 2625
M  V30 5360 1 2624 5807
M  V30 5361 1 2625 2626
M  V30 5362 1 2625 2628
M  V30 5363 1 2625 5808
M  V30 5364 2 2626 2627
M  V30 5365 1 2626 2632
M  V30 5366 1 2628 2629
M  V30 5367 1 2628 5809
M  V30 5368 1 2628 5810
M  V30 5369 1 2629 2630
M  V30 5370 1 2629 2631
M  V30 5371 1 2629 5811
M  V30 5372 1 2630 5812
M  V30 5373 1 2630 5813
M  V30 5374 1 2630 5814
M  V30 5375 1 2631 5815
M  V30 5376 1 2631 5816
M  V30 5377 1 2631 5817
M  V30 5378 1 2632 2633
M  V30 5379 1 2632 5818
M  V30 5380 1 2633 2634
M  V30 5381 1 2633 2636
M  V30 5382 1 2633 5819
M  V30 5383 2 2634 2635
M  V30 5384 1 2634 2638
M  V30 5385 1 2636 2637
M  V30 5386 1 2636 5820
M  V30 5387 1 2636 5821
M  V30 5388 1 2637 5822
M  V30 5389 1 2638 2639
M  V30 5390 1 2638 5823
M  V30 5391 1 2639 2640
M  V30 5392 1 2639 2642
M  V30 5393 1 2639 5824
M  V30 5394 2 2640 2641
M  V30 5395 1 2640 2652
M  V30 5396 1 2642 2643
M  V30 5397 1 2642 5825
M  V30 5398 1 2642 5826
M  V30 5399 2 2643 2644
M  V30 5400 1 2643 2645
M  V30 5401 1 2644 2646
M  V30 5402 1 2644 5827
M  V30 5403 2 2645 2647
M  V30 5404 1 2645 2648
M  V30 5405 1 2646 2647
M  V30 5406 1 2646 5828
M  V30 5407 1 2647 2649
M  V30 5408 2 2648 2650
M  V30 5409 1 2648 5829
M  V30 5410 2 2649 2651
M  V30 5411 1 2649 5830
M  V30 5412 1 2650 2651
M  V30 5413 1 2650 5831
M  V30 5414 1 2651 5832
M  V30 5415 1 2652 2653
M  V30 5416 1 2652 5833
M  V30 5417 1 2653 2654
M  V30 5418 1 2653 2656
M  V30 5419 1 2653 5834
M  V30 5420 2 2654 2655
M  V30 5421 1 2654 2660
M  V30 5422 1 2656 2657
M  V30 5423 1 2656 5835
M  V30 5424 1 2656 5836
M  V30 5425 1 2657 2658
M  V30 5426 1 2657 2659
M  V30 5427 1 2657 5837
M  V30 5428 1 2658 5838
M  V30 5429 1 2658 5839
M  V30 5430 1 2658 5840
M  V30 5431 1 2659 5841
M  V30 5432 1 2659 5842
M  V30 5433 1 2659 5843
M  V30 5434 1 2660 2661
M  V30 5435 1 2660 2666
M  V30 5436 1 2661 2662
M  V30 5437 1 2661 2664
M  V30 5438 1 2661 5844
M  V30 5439 2 2662 2663
M  V30 5440 1 2662 2667
M  V30 5441 1 2664 2665
M  V30 5442 1 2664 5845
M  V30 5443 1 2664 5846
M  V30 5444 1 2665 2666
M  V30 5445 1 2665 5847
M  V30 5446 1 2665 5848
M  V30 5447 1 2666 5849
M  V30 5448 1 2666 5850
M  V30 5449 1 2667 2668
M  V30 5450 1 2667 5851
M  V30 5451 1 2668 2669
M  V30 5452 1 2668 2671
M  V30 5453 1 2668 5852
M  V30 5454 2 2669 2670
M  V30 5455 1 2669 2675
M  V30 5456 1 2671 2672
M  V30 5457 1 2671 5853
M  V30 5458 1 2671 5854
M  V30 5459 1 2672 2673
M  V30 5460 1 2672 2674
M  V30 5461 1 2672 5855
M  V30 5462 1 2673 5856
M  V30 5463 1 2673 5857
M  V30 5464 1 2673 5858
M  V30 5465 1 2674 5859
M  V30 5466 1 2674 5860
M  V30 5467 1 2674 5861
M  V30 5468 1 2675 2676
M  V30 5469 1 2675 5862
M  V30 5470 1 2676 2677
M  V30 5471 1 2676 2679
M  V30 5472 1 2676 5863
M  V30 5473 2 2677 2678
M  V30 5474 1 2677 2685
M  V30 5475 1 2679 2680
M  V30 5476 1 2679 5864
M  V30 5477 1 2679 5865
M  V30 5478 1 2680 2681
M  V30 5479 2 2680 2682
M  V30 5480 1 2681 2683
M  V30 5481 1 2681 5866
M  V30 5482 1 2682 2684
M  V30 5483 1 2682 5867
M  V30 5484 2 2683 2684
M  V30 5485 1 2683 5868
M  V30 5486 1 2685 2686
M  V30 5487 1 2685 5869
M  V30 5488 1 2686 2687
M  V30 5489 1 2686 2689
M  V30 5490 1 2686 5870
M  V30 5491 2 2687 2688
M  V30 5492 1 2687 2693
M  V30 5493 1 2689 2690
M  V30 5494 1 2689 5871
M  V30 5495 1 2689 5872
M  V30 5496 1 2690 2691
M  V30 5497 1 2690 2692
M  V30 5498 1 2690 5873
M  V30 5499 1 2691 5874
M  V30 5500 1 2691 5875
M  V30 5501 1 2691 5876
M  V30 5502 1 2692 5877
M  V30 5503 1 2692 5878
M  V30 5504 1 2692 5879
M  V30 5505 1 2693 2694
M  V30 5506 1 2693 5880
M  V30 5507 1 2694 2695
M  V30 5508 1 2694 2697
M  V30 5509 1 2694 5881
M  V30 5510 2 2695 2696
M  V30 5511 1 2695 2698
M  V30 5512 1 2697 5882
M  V30 5513 1 2697 5883
M  V30 5514 1 2697 5884
M  V30 5515 1 2698 2699
M  V30 5516 1 2698 5885
M  V30 5517 1 2699 2700
M  V30 5518 1 2699 2702
M  V30 5519 1 2699 5886
M  V30 5520 2 2700 2701
M  V30 5521 1 2700 2709
M  V30 5522 1 2702 2703
M  V30 5523 1 2702 5887
M  V30 5524 1 2702 5888
M  V30 5525 1 2703 2704
M  V30 5526 1 2703 5889
M  V30 5527 1 2703 5890
M  V30 5528 1 2704 2705
M  V30 5529 1 2704 5891
M  V30 5530 1 2704 5892
M  V30 5531 1 2705 2706
M  V30 5532 1 2705 5893
M  V30 5533 1 2706 2707
M  V30 5534 2 2706 2708
M  V30 5535 1 2707 5894
M  V30 5536 1 2707 5895
M  V30 5537 1 2708 5896
M  V30 5538 1 2708 5897
M  V30 5539 1 2709 2710
M  V30 5540 1 2709 5898
M  V30 5541 1 2710 2711
M  V30 5542 1 2710 2713
M  V30 5543 1 2710 5899
M  V30 5544 2 2711 2712
M  V30 5545 1 2711 2717
M  V30 5546 1 2713 2714
M  V30 5547 1 2713 2715
M  V30 5548 1 2713 5900
M  V30 5549 1 2714 2716
M  V30 5550 1 2714 5901
M  V30 5551 1 2714 5902
M  V30 5552 1 2715 5903
M  V30 5553 1 2715 5904
M  V30 5554 1 2715 5905
M  V30 5555 1 2716 5906
M  V30 5556 1 2716 5907
M  V30 5557 1 2716 5908
M  V30 5558 1 2717 2718
M  V30 5559 1 2717 5909
M  V30 5560 1 2718 2719
M  V30 5561 1 2718 2721
M  V30 5562 1 2718 5910
M  V30 5563 2 2719 2720
M  V30 5564 1 2719 2725
M  V30 5565 1 2721 2722
M  V30 5566 1 2721 5911
M  V30 5567 1 2721 5912
M  V30 5568 1 2722 2723
M  V30 5569 1 2722 2724
M  V30 5570 1 2722 5913
M  V30 5571 1 2723 5914
M  V30 5572 1 2723 5915
M  V30 5573 1 2723 5916
M  V30 5574 1 2724 5917
M  V30 5575 1 2724 5918
M  V30 5576 1 2724 5919
M  V30 5577 1 2725 2726
M  V30 5578 1 2725 5920
M  V30 5579 1 2726 2727
M  V30 5580 1 2726 5921
M  V30 5581 1 2726 6549
M  V30 5582 2 2727 2728
M  V30 5583 1 2727 2729
M  V30 5584 1 2729 2730
M  V30 5585 1 2729 5922
M  V30 5586 1 2730 2731
M  V30 5587 1 2730 2733
M  V30 5588 1 2730 5923
M  V30 5589 2 2731 2732
M  V30 5590 1 2731 2737
M  V30 5591 1 2733 2734
M  V30 5592 1 2733 5924
M  V30 5593 1 2733 5925
M  V30 5594 1 2734 2735
M  V30 5595 1 2734 2736
M  V30 5596 1 2734 5926
M  V30 5597 1 2735 5927
M  V30 5598 1 2735 5928
M  V30 5599 1 2735 5929
M  V30 5600 1 2736 5930
M  V30 5601 1 2736 5931
M  V30 5602 1 2736 5932
M  V30 5603 1 2737 2738
M  V30 5604 1 2737 5933
M  V30 5605 1 2738 2739
M  V30 5606 1 2738 2741
M  V30 5607 1 2738 5934
M  V30 5608 2 2739 2740
M  V30 5609 1 2739 2744
M  V30 5610 1 2741 2742
M  V30 5611 1 2741 2743
M  V30 5612 1 2741 5935
M  V30 5613 1 2742 5936
M  V30 5614 1 2743 5937
M  V30 5615 1 2743 5938
M  V30 5616 1 2743 5939
M  V30 5617 1 2744 2745
M  V30 5618 1 2744 5940
M  V30 5619 1 2745 2746
M  V30 5620 1 2745 2748
M  V30 5621 1 2745 5941
M  V30 5622 2 2746 2747
M  V30 5623 1 2746 2752
M  V30 5624 1 2748 2749
M  V30 5625 1 2748 5942
M  V30 5626 1 2748 5943
M  V30 5627 1 2749 2750
M  V30 5628 1 2749 2751
M  V30 5629 1 2749 5944
M  V30 5630 1 2750 5945
M  V30 5631 1 2750 5946
M  V30 5632 1 2750 5947
M  V30 5633 1 2751 5948
M  V30 5634 1 2751 5949
M  V30 5635 1 2751 5950
M  V30 5636 1 2752 2753
M  V30 5637 1 2752 5951
M  V30 5638 1 2753 2754
M  V30 5639 1 2753 2756
M  V30 5640 1 2753 5952
M  V30 5641 2 2754 2755
M  V30 5642 1 2754 2764
M  V30 5643 1 2756 2757
M  V30 5644 1 2756 5953
M  V30 5645 1 2756 5954
M  V30 5646 2 2757 2758
M  V30 5647 1 2757 2759
M  V30 5648 1 2758 2760
M  V30 5649 1 2758 5955
M  V30 5650 2 2759 2761
M  V30 5651 1 2759 5956
M  V30 5652 2 2760 2762
M  V30 5653 1 2760 5957
M  V30 5654 1 2761 2762
M  V30 5655 1 2761 5958
M  V30 5656 1 2762 2763
M  V30 5657 1 2763 5959
M  V30 5658 1 2764 2765
M  V30 5659 1 2764 5960
M  V30 5660 1 2765 2766
M  V30 5661 1 2765 2768
M  V30 5662 1 2765 5961
M  V30 5663 2 2766 2767
M  V30 5664 1 2766 2772
M  V30 5665 1 2768 2769
M  V30 5666 1 2768 5962
M  V30 5667 1 2768 5963
M  V30 5668 2 2769 2770
M  V30 5669 1 2769 2771
M  V30 5670 1 2771 5964
M  V30 5671 1 2771 5965
M  V30 5672 1 2772 2773
M  V30 5673 1 2772 5966
M  V30 5674 1 2773 2774
M  V30 5675 1 2773 2776
M  V30 5676 1 2773 5967
M  V30 5677 2 2774 2775
M  V30 5678 1 2774 2781
M  V30 5679 1 2776 2777
M  V30 5680 1 2776 5968
M  V30 5681 1 2776 5969
M  V30 5682 1 2777 2778
M  V30 5683 1 2777 5970
M  V30 5684 1 2777 5971
M  V30 5685 2 2778 2779
M  V30 5686 1 2778 2780
M  V30 5687 1 2780 5972
M  V30 5688 1 2780 5973
M  V30 5689 1 2781 2782
M  V30 5690 1 2781 5974
M  V30 5691 1 2782 2783
M  V30 5692 1 2782 2785
M  V30 5693 1 2782 5975
M  V30 5694 2 2783 2784
M  V30 5695 1 2783 2789
M  V30 5696 1 2785 2786
M  V30 5697 1 2785 5976
M  V30 5698 1 2785 5977
M  V30 5699 2 2786 2787
M  V30 5700 1 2786 2788
M  V30 5701 1 2788 5978
M  V30 5702 1 2788 5979
M  V30 5703 1 2789 2790
M  V30 5704 1 2789 5980
M  V30 5705 1 2790 2791
M  V30 5706 1 2790 2793
M  V30 5707 1 2790 5981
M  V30 5708 2 2791 2792
M  V30 5709 1 2791 2797
M  V30 5710 1 2793 2794
M  V30 5711 1 2793 5982
M  V30 5712 1 2793 5983
M  V30 5713 2 2794 2795
M  V30 5714 1 2794 2796
M  V30 5715 1 2797 2798
M  V30 5716 1 2797 2803
M  V30 5717 1 2798 2799
M  V30 5718 1 2798 2801
M  V30 5719 1 2798 5984
M  V30 5720 2 2799 2800
M  V30 5721 1 2799 2804
M  V30 5722 1 2801 2802
M  V30 5723 1 2801 5985
M  V30 5724 1 2801 5986
M  V30 5725 1 2802 2803
M  V30 5726 1 2802 5987
M  V30 5727 1 2802 5988
M  V30 5728 1 2803 5989
M  V30 5729 1 2803 5990
M  V30 5730 1 2804 2805
M  V30 5731 1 2804 5991
M  V30 5732 1 2805 2806
M  V30 5733 1 2805 5992
M  V30 5734 1 2805 6565
M  V30 5735 2 2806 2807
M  V30 5736 1 2806 2808
M  V30 5737 1 2808 2809
M  V30 5738 1 2808 5993
M  V30 5739 1 2809 2810
M  V30 5740 1 2809 5994
M  V30 5741 1 2809 6573
M  V30 5742 2 2810 2811
M  V30 5743 1 2810 2812
M  V30 5744 1 2812 2813
M  V30 5745 1 2812 5995
M  V30 5746 1 2813 2814
M  V30 5747 1 2813 2816
M  V30 5748 1 2813 5996
M  V30 5749 2 2814 2815
M  V30 5750 1 2814 2818
M  V30 5751 1 2816 2817
M  V30 5752 1 2816 5997
M  V30 5753 1 2816 5998
M  V30 5754 1 2818 2819
M  V30 5755 1 2818 5999
M  V30 5756 1 2819 2820
M  V30 5757 1 2819 6000
M  V30 5758 1 2819 6591
M  V30 5759 2 2820 2821
M  V30 5760 1 2820 2822
M  V30 5761 1 2822 2823
M  V30 5762 1 2822 6001
M  V30 5763 1 2823 2824
M  V30 5764 1 2823 2826
M  V30 5765 1 2823 6002
M  V30 5766 2 2824 2825
M  V30 5767 1 2824 2830
M  V30 5768 1 2826 2827
M  V30 5769 1 2826 6003
M  V30 5770 1 2826 6004
M  V30 5771 1 2827 2828
M  V30 5772 1 2827 2829
M  V30 5773 1 2827 6005
M  V30 5774 1 2828 6006
M  V30 5775 1 2828 6007
M  V30 5776 1 2828 6008
M  V30 5777 1 2829 6009
M  V30 5778 1 2829 6010
M  V30 5779 1 2829 6011
M  V30 5780 1 2830 2831
M  V30 5781 1 2830 6012
M  V30 5782 1 2831 2832
M  V30 5783 1 2831 2834
M  V30 5784 1 2831 6013
M  V30 5785 2 2832 2833
M  V30 5786 1 2832 2838
M  V30 5787 1 2834 2835
M  V30 5788 1 2834 6014
M  V30 5789 1 2834 6015
M  V30 5790 1 2835 2836
M  V30 5791 1 2835 2837
M  V30 5792 1 2835 6016
M  V30 5793 1 2836 6017
M  V30 5794 1 2836 6018
M  V30 5795 1 2836 6019
M  V30 5796 1 2837 6020
M  V30 5797 1 2837 6021
M  V30 5798 1 2837 6022
M  V30 5799 1 2838 2839
M  V30 5800 1 2838 6023
M  V30 5801 1 2839 2840
M  V30 5802 1 2839 2842
M  V30 5803 1 2839 6024
M  V30 5804 2 2840 2841
M  V30 5805 1 2840 2844
M  V30 5806 1 2842 2843
M  V30 5807 1 2842 6025
M  V30 5808 1 2842 6026
M  V30 5809 1 2843 6027
M  V30 5810 1 2844 2845
M  V30 5811 1 2844 6028
M  V30 5812 1 2845 2846
M  V30 5813 1 2845 2848
M  V30 5814 1 2845 6029
M  V30 5815 2 2846 2847
M  V30 5816 1 2846 2855
M  V30 5817 1 2848 2849
M  V30 5818 1 2848 6030
M  V30 5819 1 2848 6031
M  V30 5820 2 2849 2850
M  V30 5821 1 2849 2851
M  V30 5822 1 2850 2852
M  V30 5823 1 2850 6032
M  V30 5824 2 2851 2853
M  V30 5825 1 2851 6033
M  V30 5826 2 2852 2854
M  V30 5827 1 2852 6034
M  V30 5828 1 2853 2854
M  V30 5829 1 2853 6035
M  V30 5830 1 2854 6036
M  V30 5831 1 2855 2856
M  V30 5832 1 2855 6037
M  V30 5833 1 2856 2857
M  V30 5834 1 2856 2859
M  V30 5835 1 2856 6038
M  V30 5836 2 2857 2858
M  V30 5837 1 2857 2863
M  V30 5838 1 2859 2860
M  V30 5839 1 2859 6039
M  V30 5840 1 2859 6040
M  V30 5841 1 2860 2861
M  V30 5842 1 2860 2862
M  V30 5843 1 2860 6041
M  V30 5844 1 2861 6042
M  V30 5845 1 2861 6043
M  V30 5846 1 2861 6044
M  V30 5847 1 2862 6045
M  V30 5848 1 2862 6046
M  V30 5849 1 2862 6047
M  V30 5850 1 2863 2864
M  V30 5851 1 2863 6048
M  V30 5852 1 2864 2865
M  V30 5853 1 2864 2867
M  V30 5854 1 2864 6049
M  V30 5855 2 2865 2866
M  V30 5856 1 2865 2871
M  V30 5857 1 2867 2868
M  V30 5858 1 2867 6050
M  V30 5859 1 2867 6051
M  V30 5860 1 2868 2869
M  V30 5861 1 2868 2870
M  V30 5862 1 2868 6052
M  V30 5863 1 2869 6053
M  V30 5864 1 2869 6054
M  V30 5865 1 2869 6055
M  V30 5866 1 2870 6056
M  V30 5867 1 2870 6057
M  V30 5868 1 2870 6058
M  V30 5869 1 2871 2872
M  V30 5870 1 2871 6059
M  V30 5871 1 2872 2873
M  V30 5872 1 2872 2875
M  V30 5873 1 2872 6060
M  V30 5874 2 2873 2874
M  V30 5875 1 2873 2878
M  V30 5876 1 2875 2876
M  V30 5877 1 2875 2877
M  V30 5878 1 2875 6061
M  V30 5879 1 2876 6062
M  V30 5880 1 2876 6063
M  V30 5881 1 2876 6064
M  V30 5882 1 2877 6065
M  V30 5883 1 2877 6066
M  V30 5884 1 2877 6067
M  V30 5885 1 2878 2879
M  V30 5886 1 2878 6068
M  V30 5887 1 2879 2880
M  V30 5888 1 2879 2882
M  V30 5889 1 2879 6069
M  V30 5890 2 2880 2881
M  V30 5891 1 2880 2886
M  V30 5892 1 2882 2883
M  V30 5893 1 2882 6070
M  V30 5894 1 2882 6071
M  V30 5895 1 2883 2884
M  V30 5896 1 2883 2885
M  V30 5897 1 2883 6072
M  V30 5898 1 2884 6073
M  V30 5899 1 2884 6074
M  V30 5900 1 2884 6075
M  V30 5901 1 2885 6076
M  V30 5902 1 2885 6077
M  V30 5903 1 2885 6078
M  V30 5904 1 2886 2887
M  V30 5905 1 2886 6079
M  V30 5906 1 2887 2888
M  V30 5907 1 2887 2890
M  V30 5908 1 2887 6080
M  V30 5909 2 2888 2889
M  V30 5910 1 2888 2894
M  V30 5911 1 2890 2891
M  V30 5912 1 2890 6081
M  V30 5913 1 2890 6082
M  V30 5914 2 2891 2892
M  V30 5915 1 2891 2893
M  V30 5916 1 2894 2895
M  V30 5917 1 2894 6083
M  V30 5918 1 2895 2896
M  V30 5919 1 2895 2898
M  V30 5920 1 2895 6084
M  V30 5921 2 2896 2897
M  V30 5922 1 2896 2906
M  V30 5923 1 2898 2899
M  V30 5924 1 2898 6085
M  V30 5925 1 2898 6086
M  V30 5926 2 2899 2900
M  V30 5927 1 2899 2901
M  V30 5928 1 2900 2902
M  V30 5929 1 2900 6087
M  V30 5930 2 2901 2903
M  V30 5931 1 2901 6088
M  V30 5932 2 2902 2904
M  V30 5933 1 2902 6089
M  V30 5934 1 2903 2904
M  V30 5935 1 2903 6090
M  V30 5936 1 2904 2905
M  V30 5937 1 2905 6091
M  V30 5938 1 2906 2907
M  V30 5939 1 2906 6092
M  V30 5940 1 2907 2908
M  V30 5941 1 2907 2910
M  V30 5942 1 2907 6093
M  V30 5943 2 2908 2909
M  V30 5944 1 2908 2914
M  V30 5945 1 2910 2911
M  V30 5946 1 2910 2912
M  V30 5947 1 2910 6094
M  V30 5948 1 2911 2913
M  V30 5949 1 2911 6095
M  V30 5950 1 2911 6096
M  V30 5951 1 2912 6097
M  V30 5952 1 2912 6098
M  V30 5953 1 2912 6099
M  V30 5954 1 2913 6100
M  V30 5955 1 2913 6101
M  V30 5956 1 2913 6102
M  V30 5957 1 2914 2915
M  V30 5958 1 2914 6103
M  V30 5959 1 2915 2916
M  V30 5960 1 2915 6104
M  V30 5961 1 2915 6105
M  V30 5962 2 2916 2917
M  V30 5963 1 2916 2918
M  V30 5964 1 2918 2919
M  V30 5965 1 2918 6106
M  V30 5966 1 2919 2920
M  V30 5967 1 2919 2922
M  V30 5968 1 2919 6107
M  V30 5969 2 2920 2921
M  V30 5970 1 2920 2926
M  V30 5971 1 2922 2923
M  V30 5972 1 2922 2924
M  V30 5973 1 2922 6108
M  V30 5974 1 2923 2925
M  V30 5975 1 2923 6109
M  V30 5976 1 2923 6110
M  V30 5977 1 2924 6111
M  V30 5978 1 2924 6112
M  V30 5979 1 2924 6113
M  V30 5980 1 2925 6114
M  V30 5981 1 2925 6115
M  V30 5982 1 2925 6116
M  V30 5983 1 2926 2927
M  V30 5984 1 2926 6117
M  V30 5985 1 2927 2928
M  V30 5986 1 2927 2930
M  V30 5987 1 2927 6118
M  V30 5988 2 2928 2929
M  V30 5989 1 2928 2934
M  V30 5990 1 2930 2931
M  V30 5991 1 2930 6119
M  V30 5992 1 2930 6120
M  V30 5993 2 2931 2932
M  V30 5994 1 2931 2933
M  V30 5995 1 2933 6121
M  V30 5996 1 2933 6122
M  V30 5997 1 2934 2935
M  V30 5998 1 2934 6123
M  V30 5999 1 2935 2936
M  V30 6000 1 2935 2938
M  V30 6001 1 2935 6124
M  V30 6002 2 2936 2937
M  V30 6003 1 2936 2942
M  V30 6004 1 2938 2939
M  V30 6005 1 2938 6125
M  V30 6006 1 2938 6126
M  V30 6007 1 2939 2940
M  V30 6008 1 2939 6127
M  V30 6009 1 2939 6128
M  V30 6010 1 2940 2941
M  V30 6011 1 2941 6129
M  V30 6012 1 2941 6130
M  V30 6013 1 2941 6131
M  V30 6014 1 2942 2943
M  V30 6015 1 2942 6132
M  V30 6016 1 2943 2944
M  V30 6017 1 2943 2946
M  V30 6018 1 2943 6133
M  V30 6019 2 2944 2945
M  V30 6020 1 2944 2947
M  V30 6021 1 2946 6134
M  V30 6022 1 2946 6135
M  V30 6023 1 2946 6136
M  V30 6024 1 2947 2948
M  V30 6025 1 2947 6137
M  V30 6026 1 2948 2949
M  V30 6027 1 2948 2951
M  V30 6028 1 2948 6138
M  V30 6029 2 2949 2950
M  V30 6030 1 2949 2953
M  V30 6031 1 2951 2952
M  V30 6032 1 2951 6139
M  V30 6033 1 2951 6140
M  V30 6034 1 2952 6141
M  V30 6035 1 2953 2954
M  V30 6036 1 2953 6142
M  V30 6037 1 2954 2955
M  V30 6038 1 2954 2957
M  V30 6039 1 2954 6143
M  V30 6040 2 2955 2956
M  V30 6041 1 2955 2961
M  V30 6042 1 2957 2958
M  V30 6043 1 2957 6144
M  V30 6044 1 2957 6145
M  V30 6045 1 2958 2959
M  V30 6046 1 2958 2960
M  V30 6047 1 2958 6146
M  V30 6048 1 2959 6147
M  V30 6049 1 2959 6148
M  V30 6050 1 2959 6149
M  V30 6051 1 2960 6150
M  V30 6052 1 2960 6151
M  V30 6053 1 2960 6152
M  V30 6054 1 2961 2962
M  V30 6055 1 2961 6153
M  V30 6056 1 2962 2963
M  V30 6057 1 2962 2965
M  V30 6058 1 2962 6154
M  V30 6059 2 2963 2964
M  V30 6060 1 2963 2969
M  V30 6061 1 2965 2966
M  V30 6062 1 2965 6155
M  V30 6063 1 2965 6156
M  V30 6064 2 2966 2967
M  V30 6065 1 2966 2968
M  V30 6066 1 2968 6157
M  V30 6067 1 2968 6158
M  V30 6068 1 2969 2970
M  V30 6069 1 2969 6159
M  V30 6070 1 2970 2971
M  V30 6071 1 2970 2973
M  V30 6072 1 2970 6160
M  V30 6073 2 2971 2972
M  V30 6074 1 2971 2975
M  V30 6075 1 2973 2974
M  V30 6076 1 2973 6161
M  V30 6077 1 2973 6162
M  V30 6078 1 2974 6163
M  V30 6079 1 2975 2976
M  V30 6080 1 2975 6164
M  V30 6081 1 2976 2977
M  V30 6082 1 2976 2979
M  V30 6083 1 2976 6165
M  V30 6084 2 2977 2978
M  V30 6085 1 2977 2981
M  V30 6086 1 2979 2980
M  V30 6087 1 2979 6166
M  V30 6088 1 2979 6167
M  V30 6089 1 2980 6168
M  V30 6090 1 2981 2982
M  V30 6091 1 2981 6169
M  V30 6092 1 2982 2983
M  V30 6093 1 2982 2985
M  V30 6094 1 2982 6170
M  V30 6095 2 2983 2984
M  V30 6096 1 2983 2986
M  V30 6097 1 2985 6171
M  V30 6098 1 2985 6172
M  V30 6099 1 2985 6173
M  V30 6100 1 2986 2987
M  V30 6101 1 2986 6174
M  V30 6102 1 2987 2988
M  V30 6103 1 2987 2990
M  V30 6104 1 2987 6175
M  V30 6105 2 2988 2989
M  V30 6106 1 2988 2994
M  V30 6107 1 2990 2991
M  V30 6108 1 2990 6176
M  V30 6109 1 2990 6177
M  V30 6110 2 2991 2992
M  V30 6111 1 2991 2993
M  V30 6112 1 2993 6178
M  V30 6113 1 2993 6179
M  V30 6114 1 2994 2995
M  V30 6115 1 2994 3000
M  V30 6116 1 2995 2996
M  V30 6117 1 2995 2998
M  V30 6118 1 2995 6180
M  V30 6119 2 2996 2997
M  V30 6120 1 2996 3001
M  V30 6121 1 2998 2999
M  V30 6122 1 2998 6181
M  V30 6123 1 2998 6182
M  V30 6124 1 2999 3000
M  V30 6125 1 2999 6183
M  V30 6126 1 2999 6184
M  V30 6127 1 3000 6185
M  V30 6128 1 3000 6186
M  V30 6129 1 3001 3002
M  V30 6130 1 3001 6187
M  V30 6131 1 3002 3003
M  V30 6132 1 3002 3005
M  V30 6133 1 3002 6188
M  V30 6134 2 3003 3004
M  V30 6135 1 3003 3009
M  V30 6136 1 3005 3006
M  V30 6137 1 3005 3007
M  V30 6138 1 3005 6189
M  V30 6139 1 3006 3008
M  V30 6140 1 3006 6190
M  V30 6141 1 3006 6191
M  V30 6142 1 3007 6192
M  V30 6143 1 3007 6193
M  V30 6144 1 3007 6194
M  V30 6145 1 3008 6195
M  V30 6146 1 3008 6196
M  V30 6147 1 3008 6197
M  V30 6148 1 3009 3010
M  V30 6149 1 3009 6198
M  V30 6150 1 3010 3011
M  V30 6151 1 3010 3013
M  V30 6152 1 3010 6199
M  V30 6153 2 3011 3012
M  V30 6154 1 3011 3014
M  V30 6155 1 3013 6200
M  V30 6156 1 3013 6201
M  V30 6157 1 3013 6202
M  V30 6158 1 3014 3015
M  V30 6159 1 3014 6203
M  V30 6160 1 3015 3016
M  V30 6161 1 3015 3018
M  V30 6162 1 3015 6204
M  V30 6163 2 3016 3017
M  V30 6164 1 3016 3022
M  V30 6165 1 3018 3019
M  V30 6166 1 3018 6205
M  V30 6167 1 3018 6206
M  V30 6168 1 3019 3020
M  V30 6169 1 3019 3021
M  V30 6170 1 3019 6207
M  V30 6171 1 3020 6208
M  V30 6172 1 3020 6209
M  V30 6173 1 3020 6210
M  V30 6174 1 3021 6211
M  V30 6175 1 3021 6212
M  V30 6176 1 3021 6213
M  V30 6177 1 3022 3023
M  V30 6178 1 3022 6214
M  V30 6179 1 3023 3024
M  V30 6180 1 3023 3026
M  V30 6181 1 3023 6215
M  V30 6182 2 3024 3025
M  V30 6183 1 3024 3034
M  V30 6184 1 3026 3027
M  V30 6185 1 3026 6216
M  V30 6186 1 3026 6217
M  V30 6187 2 3027 3028
M  V30 6188 1 3027 3029
M  V30 6189 1 3028 3030
M  V30 6190 1 3028 6218
M  V30 6191 2 3029 3031
M  V30 6192 1 3029 6219
M  V30 6193 2 3030 3032
M  V30 6194 1 3030 6220
M  V30 6195 1 3031 3032
M  V30 6196 1 3031 6221
M  V30 6197 1 3032 3033
M  V30 6198 1 3033 6222
M  V30 6199 1 3034 3035
M  V30 6200 1 3034 6223
M  V30 6201 1 3035 3036
M  V30 6202 1 3035 3038
M  V30 6203 1 3035 6224
M  V30 6204 2 3036 3037
M  V30 6205 1 3036 3042
M  V30 6206 1 3038 3039
M  V30 6207 1 3038 6225
M  V30 6208 1 3038 6226
M  V30 6209 1 3039 3040
M  V30 6210 1 3039 3041
M  V30 6211 1 3039 6227
M  V30 6212 1 3040 6228
M  V30 6213 1 3040 6229
M  V30 6214 1 3040 6230
M  V30 6215 1 3041 6231
M  V30 6216 1 3041 6232
M  V30 6217 1 3041 6233
M  V30 6218 1 3042 3043
M  V30 6219 1 3042 6234
M  V30 6220 1 3043 3044
M  V30 6221 1 3043 3046
M  V30 6222 1 3043 6235
M  V30 6223 2 3044 3045
M  V30 6224 1 3044 3049
M  V30 6225 1 3046 3047
M  V30 6226 1 3046 3048
M  V30 6227 1 3046 6236
M  V30 6228 1 3047 6237
M  V30 6229 1 3047 6238
M  V30 6230 1 3047 6239
M  V30 6231 1 3048 6240
M  V30 6232 1 3048 6241
M  V30 6233 1 3048 6242
M  V30 6234 1 3049 3050
M  V30 6235 1 3049 6243
M  V30 6236 1 3050 3051
M  V30 6237 1 3050 3053
M  V30 6238 1 3050 6244
M  V30 6239 2 3051 3052
M  V30 6240 1 3051 3055
M  V30 6241 1 3053 3054
M  V30 6242 1 3053 6245
M  V30 6243 1 3053 6246
M  V30 6244 1 3054 6247
M  V30 6245 1 3055 3056
M  V30 6246 1 3055 6248
M  V30 6247 1 3056 3057
M  V30 6248 1 3056 6249
M  V30 6249 1 3056 6600
M  V30 6250 2 3057 3058
M  V30 6251 1 3057 3059
M  V30 6252 1 3059 3060
M  V30 6253 1 3059 6250
M  V30 6254 1 3060 3061
M  V30 6255 1 3060 3063
M  V30 6256 1 3060 6251
M  V30 6257 2 3061 3062
M  V30 6258 1 3061 3070
M  V30 6259 1 3063 3064
M  V30 6260 1 3063 6252
M  V30 6261 1 3063 6253
M  V30 6262 1 3064 3065
M  V30 6263 1 3064 6254
M  V30 6264 1 3064 6255
M  V30 6265 1 3065 3066
M  V30 6266 1 3065 6256
M  V30 6267 1 3065 6257
M  V30 6268 1 3066 3067
M  V30 6269 1 3066 6258
M  V30 6270 1 3067 3068
M  V30 6271 2 3067 3069
M  V30 6272 1 3068 6259
M  V30 6273 1 3068 6260
M  V30 6274 1 3069 6261
M  V30 6275 1 3069 6262
M  V30 6276 1 3070 3071
M  V30 6277 1 3070 6263
M  V30 6278 1 3071 3072
M  V30 6279 1 3071 3074
M  V30 6280 1 3071 6264
M  V30 6281 2 3072 3073
M  V30 6282 1 3072 3081
M  V30 6283 1 3074 3075
M  V30 6284 1 3074 6265
M  V30 6285 1 3074 6266
M  V30 6286 2 3075 3076
M  V30 6287 1 3075 3077
M  V30 6288 1 3076 3078
M  V30 6289 1 3076 6267
M  V30 6290 2 3077 3079
M  V30 6291 1 3077 6268
M  V30 6292 2 3078 3080
M  V30 6293 1 3078 6269
M  V30 6294 1 3079 3080
M  V30 6295 1 3079 6270
M  V30 6296 1 3080 6271
M  V30 6297 1 3081 3082
M  V30 6298 1 3081 6272
M  V30 6299 1 3082 3083
M  V30 6300 1 3082 6273
M  V30 6301 1 3082 6616
M  V30 6302 2 3083 3084
M  V30 6303 1 3083 3085
M  V30 6304 1 3085 3086
M  V30 6305 1 3085 6274
M  V30 6306 1 3086 3087
M  V30 6307 1 3086 3089
M  V30 6308 1 3086 6275
M  V30 6309 2 3087 3088
M  V30 6310 1 3087 3093
M  V30 6311 1 3089 3090
M  V30 6312 1 3089 6276
M  V30 6313 1 3089 6277
M  V30 6314 2 3090 3091
M  V30 6315 1 3090 3092
M  V30 6316 1 3092 6278
M  V30 6317 1 3092 6279
M  V30 6318 1 3093 3094
M  V30 6319 1 3093 6280
M  V30 6320 1 3094 3095
M  V30 6321 1 3094 3097
M  V30 6322 1 3094 6281
M  V30 6323 2 3095 3096
M  V30 6324 1 3095 3098
M  V30 6325 1 3097 6282
M  V30 6326 1 3097 6283
M  V30 6327 1 3097 6284
M  V30 6328 1 3098 3099
M  V30 6329 1 3098 6285
M  V30 6330 1 3099 3100
M  V30 6331 1 3099 3102
M  V30 6332 1 3099 6286
M  V30 6333 2 3100 3101
M  V30 6334 1 3100 3109
M  V30 6335 1 3102 3103
M  V30 6336 1 3102 6287
M  V30 6337 1 3102 6288
M  V30 6338 2 3103 3104
M  V30 6339 1 3103 3105
M  V30 6340 1 3104 3106
M  V30 6341 1 3104 6289
M  V30 6342 2 3105 3107
M  V30 6343 1 3105 6290
M  V30 6344 2 3106 3108
M  V30 6345 1 3106 6291
M  V30 6346 1 3107 3108
M  V30 6347 1 3107 6292
M  V30 6348 1 3108 6293
M  V30 6349 1 3109 3110
M  V30 6350 1 3109 6294
M  V30 6351 1 3110 3111
M  V30 6352 1 3110 6295
M  V30 6353 1 3110 6632
M  V30 6354 2 3111 3112
M  V30 6355 1 3111 3113
M  V30 6356 1 3113 3114
M  V30 6357 1 3113 6296
M  V30 6358 1 3114 3115
M  V30 6359 1 3114 3117
M  V30 6360 1 3114 6297
M  V30 6361 2 3115 3116
M  V30 6362 1 3115 3119
M  V30 6363 1 3117 3118
M  V30 6364 1 3117 6298
M  V30 6365 1 3117 6299
M  V30 6366 1 3118 6300
M  V30 6367 1 3119 3120
M  V30 6368 1 3119 6301
M  V30 6369 1 3120 3121
M  V30 6370 1 3120 3123
M  V30 6371 1 3120 6302
M  V30 6372 2 3121 3122
M  V30 6373 1 3121 3124
M  V30 6374 1 3123 6303
M  V30 6375 1 3123 6304
M  V30 6376 1 3123 6305
M  V30 6377 1 3124 3125
M  V30 6378 1 3124 6306
M  V30 6379 1 3125 3126
M  V30 6380 1 3125 3128
M  V30 6381 1 3125 6307
M  V30 6382 2 3126 3127
M  V30 6383 1 3126 3132
M  V30 6384 1 3128 3129
M  V30 6385 1 3128 6308
M  V30 6386 1 3128 6309
M  V30 6387 1 3129 3130
M  V30 6388 1 3129 3131
M  V30 6389 1 3129 6310
M  V30 6390 1 3130 6311
M  V30 6391 1 3130 6312
M  V30 6392 1 3130 6313
M  V30 6393 1 3131 6314
M  V30 6394 1 3131 6315
M  V30 6395 1 3131 6316
M  V30 6396 1 3132 3133
M  V30 6397 1 3132 6317
M  V30 6398 1 3133 3134
M  V30 6399 1 3133 3136
M  V30 6400 1 3133 6318
M  V30 6401 2 3134 3135
M  V30 6402 1 3134 6319
M  V30 6403 1 3136 3137
M  V30 6404 1 3136 6320
M  V30 6405 1 3136 6321
M  V30 6406 1 3137 6322
M  V30 6407 2 3138 3139
M  V30 6408 2 3138 3140
M  V30 6409 1 3138 3141
M  V30 6410 1 3138 3142
M  V30 6411 2 3143 3144
M  V30 6412 2 3143 3145
M  V30 6413 1 3143 3146
M  V30 6414 1 3143 3147
M  V30 6415 2 3148 3149
M  V30 6416 2 3148 3150
M  V30 6417 1 3148 3151
M  V30 6418 1 3148 3152
M  V30 6419 2 3153 3154
M  V30 6420 2 3153 3155
M  V30 6421 1 3153 3156
M  V30 6422 1 3153 3157
M  V30 6423 1 6323 6324
M  V30 6424 1 6323 6328
M  V30 6425 1 6323 6329
M  V30 6426 1 6324 6325
M  V30 6427 1 6324 6330
M  V30 6428 1 6324 6331
M  V30 6429 2 6325 6326
M  V30 6430 1 6325 6327
M  V30 6431 1 6327 6332
M  V30 6432 1 6327 6333
M  V30 6433 1 6334 6335
M  V30 6434 1 6334 6339
M  V30 6435 1 6334 6340
M  V30 6436 1 6335 6336
M  V30 6437 1 6335 6341
M  V30 6438 1 6335 6342
M  V30 6439 1 6336 6337
M  V30 6440 1 6336 6343
M  V30 6441 1 6336 6344
M  V30 6442 1 6337 6338
M  V30 6443 1 6337 6345
M  V30 6444 1 6337 6346
M  V30 6445 1 6338 6347
M  V30 6446 1 6338 6348
M  V30 6447 1 6338 6349
M  V30 6448 1 6350 6351
M  V30 6449 1 6350 6357
M  V30 6450 1 6350 6358
M  V30 6451 1 6351 6352
M  V30 6452 1 6351 6359
M  V30 6453 1 6351 6360
M  V30 6454 1 6352 6353
M  V30 6455 1 6352 6361
M  V30 6456 1 6352 6362
M  V30 6457 1 6353 6354
M  V30 6458 1 6353 6363
M  V30 6459 1 6354 6355
M  V30 6460 2 6354 6356
M  V30 6461 1 6355 6364
M  V30 6462 1 6355 6365
M  V30 6463 1 6356 6366
M  V30 6464 1 6356 6367
M  V30 6465 1 6368 6369
M  V30 6466 1 6368 6372
M  V30 6467 1 6368 6373
M  V30 6468 2 6369 6370
M  V30 6469 1 6369 6371
M  V30 6470 1 6371 6374
M  V30 6471 1 6371 6375
M  V30 6472 1 6376 6377
M  V30 6473 1 6376 6378
M  V30 6474 1 6376 6380
M  V30 6475 1 6377 6379
M  V30 6476 1 6377 6381
M  V30 6477 1 6377 6382
M  V30 6478 1 6378 6383
M  V30 6479 1 6378 6384
M  V30 6480 1 6378 6385
M  V30 6481 1 6379 6386
M  V30 6482 1 6379 6387
M  V30 6483 1 6379 6388
M  V30 6484 1 6389 6390
M  V30 6485 1 6389 6397
M  V30 6486 1 6389 6398
M  V30 6487 2 6390 6391
M  V30 6488 1 6390 6392
M  V30 6489 1 6391 6393
M  V30 6490 1 6391 6399
M  V30 6491 2 6392 6394
M  V30 6492 1 6392 6400
M  V30 6493 2 6393 6395
M  V30 6494 1 6393 6401
M  V30 6495 1 6394 6395
M  V30 6496 1 6394 6402
M  V30 6497 1 6395 6396
M  V30 6498 1 6396 6403
M  V30 6499 1 6404 6405
M  V30 6500 1 6404 6406
M  V30 6501 1 6404 6408
M  V30 6502 1 6405 6407
M  V30 6503 1 6405 6409
M  V30 6504 1 6405 6410
M  V30 6505 1 6406 6411
M  V30 6506 1 6406 6412
M  V30 6507 1 6406 6413
M  V30 6508 1 6407 6414
M  V30 6509 1 6407 6415
M  V30 6510 1 6407 6416
M  V30 6511 1 6417 6418
M  V30 6512 1 6417 6421
M  V30 6513 1 6417 6422
M  V30 6514 1 6418 6419
M  V30 6515 1 6418 6423
M  V30 6516 1 6418 6424
M  V30 6517 1 6419 6420
M  V30 6518 1 6420 6425
M  V30 6519 1 6420 6426
M  V30 6520 1 6420 6427
M  V30 6521 1 6428 6429
M  V30 6522 1 6428 6436
M  V30 6523 1 6428 6437
M  V30 6524 2 6429 6430
M  V30 6525 1 6429 6431
M  V30 6526 1 6430 6432
M  V30 6527 1 6430 6438
M  V30 6528 2 6431 6433
M  V30 6529 1 6431 6439
M  V30 6530 2 6432 6434
M  V30 6531 1 6432 6440
M  V30 6532 1 6433 6434
M  V30 6533 1 6433 6441
M  V30 6534 1 6434 6435
M  V30 6535 1 6435 6442
M  V30 6536 1 6443 6444
M  V30 6537 1 6443 6448
M  V30 6538 1 6443 6449
M  V30 6539 1 6444 6445
M  V30 6540 1 6444 6450
M  V30 6541 1 6444 6451
M  V30 6542 1 6445 6446
M  V30 6543 1 6445 6452
M  V30 6544 1 6445 6453
M  V30 6545 1 6446 6447
M  V30 6546 1 6446 6454
M  V30 6547 1 6446 6455
M  V30 6548 1 6447 6456
M  V30 6549 1 6447 6457
M  V30 6550 1 6447 6458
M  V30 6551 1 6459 6460
M  V30 6552 1 6459 6463
M  V30 6553 1 6459 6464
M  V30 6554 1 6460 6461
M  V30 6555 1 6460 6462
M  V30 6556 1 6460 6465
M  V30 6557 1 6461 6466
M  V30 6558 1 6461 6467
M  V30 6559 1 6461 6468
M  V30 6560 1 6462 6469
M  V30 6561 1 6462 6470
M  V30 6562 1 6462 6471
M  V30 6563 1 6472 6473
M  V30 6564 1 6472 6479
M  V30 6565 1 6472 6480
M  V30 6566 1 6473 6474
M  V30 6567 1 6473 6481
M  V30 6568 1 6473 6482
M  V30 6569 1 6474 6475
M  V30 6570 1 6474 6483
M  V30 6571 1 6474 6484
M  V30 6572 1 6475 6476
M  V30 6573 1 6475 6485
M  V30 6574 1 6476 6477
M  V30 6575 2 6476 6478
M  V30 6576 1 6477 6486
M  V30 6577 1 6477 6487
M  V30 6578 1 6478 6488
M  V30 6579 1 6478 6489
M  V30 6580 1 6490 6491
M  V30 6581 1 6490 6495
M  V30 6582 1 6490 6496
M  V30 6583 1 6491 6492
M  V30 6584 1 6491 6497
M  V30 6585 1 6491 6498
M  V30 6586 1 6492 6493
M  V30 6587 1 6492 6499
M  V30 6588 1 6492 6500
M  V30 6589 1 6493 6494
M  V30 6590 1 6493 6501
M  V30 6591 1 6493 6502
M  V30 6592 1 6494 6503
M  V30 6593 1 6494 6504
M  V30 6594 1 6494 6505
M  V30 6595 1 6506 6507
M  V30 6596 1 6506 6511
M  V30 6597 1 6506 6512
M  V30 6598 1 6507 6508
M  V30 6599 1 6507 6513
M  V30 6600 1 6507 6514
M  V30 6601 2 6508 6509
M  V30 6602 1 6508 6510
M  V30 6603 1 6510 6515
M  V30 6604 1 6510 6516
M  V30 6605 1 6517 6518
M  V30 6606 1 6517 6524
M  V30 6607 1 6517 6525
M  V30 6608 2 6518 6519
M  V30 6609 1 6518 6520
M  V30 6610 1 6519 6521
M  V30 6611 1 6519 6526
M  V30 6612 2 6520 6522
M  V30 6613 1 6520 6527
M  V30 6614 2 6521 6523
M  V30 6615 1 6521 6528
M  V30 6616 1 6522 6523
M  V30 6617 1 6522 6529
M  V30 6618 1 6523 6530
M  V30 6619 1 6531 6532
M  V30 6620 1 6531 6538
M  V30 6621 1 6531 6539
M  V30 6622 1 6532 6533
M  V30 6623 1 6532 6540
M  V30 6624 1 6532 6541
M  V30 6625 1 6533 6534
M  V30 6626 1 6533 6542
M  V30 6627 1 6533 6543
M  V30 6628 1 6534 6535
M  V30 6629 1 6534 6544
M  V30 6630 1 6535 6536
M  V30 6631 2 6535 6537
M  V30 6632 1 6536 6545
M  V30 6633 1 6536 6546
M  V30 6634 1 6537 6547
M  V30 6635 1 6537 6548
M  V30 6636 1 6549 6550
M  V30 6637 1 6549 6554
M  V30 6638 1 6549 6555
M  V30 6639 1 6550 6551
M  V30 6640 1 6550 6556
M  V30 6641 1 6550 6557
M  V30 6642 1 6551 6552
M  V30 6643 1 6551 6558
M  V30 6644 1 6551 6559
M  V30 6645 1 6552 6553
M  V30 6646 1 6552 6560
M  V30 6647 1 6552 6561
M  V30 6648 1 6553 6562
M  V30 6649 1 6553 6563
M  V30 6650 1 6553 6564
M  V30 6651 1 6565 6566
M  V30 6652 1 6565 6569
M  V30 6653 1 6565 6570
M  V30 6654 2 6566 6567
M  V30 6655 1 6566 6568
M  V30 6656 1 6568 6571
M  V30 6657 1 6568 6572
M  V30 6658 1 6573 6574
M  V30 6659 1 6573 6580
M  V30 6660 1 6573 6581
M  V30 6661 1 6574 6575
M  V30 6662 1 6574 6582
M  V30 6663 1 6574 6583
M  V30 6664 1 6575 6576
M  V30 6665 1 6575 6584
M  V30 6666 1 6575 6585
M  V30 6667 1 6576 6577
M  V30 6668 1 6576 6586
M  V30 6669 1 6577 6578
M  V30 6670 2 6577 6579
M  V30 6671 1 6578 6587
M  V30 6672 1 6578 6588
M  V30 6673 1 6579 6589
M  V30 6674 1 6579 6590
M  V30 6675 1 6591 6592
M  V30 6676 1 6591 6596
M  V30 6677 1 6591 6597
M  V30 6678 1 6592 6593
M  V30 6679 1 6592 6598
M  V30 6680 1 6592 6599
M  V30 6681 2 6593 6594
M  V30 6682 1 6593 6595
M  V30 6683 1 6600 6601
M  V30 6684 1 6600 6605
M  V30 6685 1 6600 6606
M  V30 6686 1 6601 6602
M  V30 6687 1 6601 6607
M  V30 6688 1 6601 6608
M  V30 6689 1 6602 6603
M  V30 6690 1 6602 6609
M  V30 6691 1 6602 6610
M  V30 6692 1 6603 6604
M  V30 6693 1 6603 6611
M  V30 6694 1 6603 6612
M  V30 6695 1 6604 6613
M  V30 6696 1 6604 6614
M  V30 6697 1 6604 6615
M  V30 6698 1 6616 6617
M  V30 6699 1 6616 6621
M  V30 6700 1 6616 6622
M  V30 6701 1 6617 6618
M  V30 6702 1 6617 6623
M  V30 6703 1 6617 6624
M  V30 6704 1 6618 6619
M  V30 6705 1 6618 6625
M  V30 6706 1 6618 6626
M  V30 6707 1 6619 6620
M  V30 6708 1 6619 6627
M  V30 6709 1 6619 6628
M  V30 6710 1 6620 6629
M  V30 6711 1 6620 6630
M  V30 6712 1 6620 6631
M  V30 6713 1 6632 6633
M  V30 6714 1 6632 6637
M  V30 6715 1 6632 6638
M  V30 6716 1 6633 6634
M  V30 6717 1 6633 6639
M  V30 6718 1 6633 6640
M  V30 6719 1 6634 6635
M  V30 6720 1 6634 6641
M  V30 6721 1 6634 6642
M  V30 6722 1 6635 6636
M  V30 6723 1 6635 6643
M  V30 6724 1 6635 6644
M  V30 6725 1 6636 6645
M  V30 6726 1 6636 6646
M  V30 6727 1 6636 6647
M  V30 6728 1 6648 6649
M  V30 6729 1 6648 6655
M  V30 6730 1 6648 6656
M  V30 6731 1 6649 6650
M  V30 6732 1 6649 6657
M  V30 6733 1 6649 6658
M  V30 6734 1 6650 6651
M  V30 6735 1 6650 6659
M  V30 6736 1 6650 6660
M  V30 6737 1 6651 6652
M  V30 6738 1 6651 6661
M  V30 6739 1 6652 6653
M  V30 6740 2 6652 6654
M  V30 6741 1 6653 6662
M  V30 6742 1 6653 6663
M  V30 6743 1 6654 6664
M  V30 6744 1 6654 6665
M  V30 6745 1 6666 6667
M  V30 6746 1 6666 6671
M  V30 6747 1 6666 6672
M  V30 6748 1 6667 6668
M  V30 6749 1 6667 6673
M  V30 6750 1 6667 6674
M  V30 6751 2 6668 6669
M  V30 6752 1 6668 6670
M  V30 6753 1 6670 6675
M  V30 6754 1 6670 6676
M  V30 6755 1 6677 6678
M  V30 6756 1 6677 6684
M  V30 6757 1 6677 6685
M  V30 6758 1 6678 6679
M  V30 6759 1 6678 6686
M  V30 6760 1 6678 6687
M  V30 6761 1 6679 6680
M  V30 6762 1 6679 6688
M  V30 6763 1 6679 6689
M  V30 6764 1 6680 6681
M  V30 6765 1 6680 6690
M  V30 6766 1 6681 6682
M  V30 6767 2 6681 6683
M  V30 6768 1 6682 6691
M  V30 6769 1 6682 6692
M  V30 6770 1 6683 6693
M  V30 6771 1 6683 6694
M  V30 6772 1 6695 6696
M  V30 6773 1 6695 6702
M  V30 6774 1 6695 6703
M  V30 6775 1 6696 6697
M  V30 6776 1 6696 6704
M  V30 6777 1 6696 6705
M  V30 6778 1 6697 6698
M  V30 6779 1 6697 6706
M  V30 6780 1 6697 6707
M  V30 6781 1 6698 6699
M  V30 6782 1 6698 6708
M  V30 6783 1 6699 6700
M  V30 6784 2 6699 6701
M  V30 6785 1 6700 6709
M  V30 6786 1 6700 6710
M  V30 6787 1 6701 6711
M  V30 6788 1 6701 6712
M  V30 6789 1 6713 6714
M  V30 6790 1 6713 6718
M  V30 6791 1 6713 6719
M  V30 6792 1 6714 6715
M  V30 6793 1 6714 6720
M  V30 6794 1 6714 6721
M  V30 6795 1 6715 6716
M  V30 6796 1 6715 6722
M  V30 6797 1 6715 6723
M  V30 6798 1 6716 6717
M  V30 6799 1 6716 6724
M  V30 6800 1 6716 6725
M  V30 6801 1 6717 6726
M  V30 6802 1 6717 6727
M  V30 6803 1 6717 6728
M  V30 END BOND
M  V30 END CTAB
M  END
$$$$
C1
                    3D
 Schrodinger Suite 2021-2.
  0  0  0     0  0            999 V3000
M  V30 BEGIN CTAB
M  V30 COUNTS 57 60 0 0 0
M  V30 BEGIN ATOM
M  V30 1 C  -27.9106 7.2773 6.8822 0
M  V30 2 O  -28.4060 6.0286 7.3418 0
M  V30 3 C  -29.2329 6.0215 8.4447 0
M  V30 4 C  -29.5273 7.1534 9.2430 0
M  V30 5 C  -30.3813 7.0393 10.3610 0
M  V30 6 C  -30.9814 5.8047 10.7096 0
M  V30 7 C  -30.6844 4.6817 9.8894 0
M  V30 8 C  -29.8191 4.7901 8.7826 0
M  V30 9 N  -31.4013 3.6050 10.4025 0
M  V30 10 C  -31.3273 2.2417 9.8717 0
M  V30 11 C  -32.2114 1.9588 8.6571 0
M  V30 12 C  -32.4142 0.6196 8.2365 0
M  V30 13 Cl -31.6617 -0.7030 9.0579 0
M  V30 14 C  -33.2376 0.3405 7.1269 0
M  V30 15 C  -33.8522 1.3882 6.4169 0
M  V30 16 F  -34.6438 1.1185 5.3540 0
M  V30 17 C  -33.6254 2.7208 6.8045 0
M  V30 18 C  -32.8139 3.0049 7.9178 0
M  V30 19 C  -32.1462 4.0453 11.5072 0
M  V30 20 C  -33.0758 3.1367 12.2140 0
M  V30 21 O  -32.8138 2.7423 13.3753 0 CHG=-1
M  V30 22 O  -34.0867 2.7402 11.6040 0
M  V30 23 C  -31.8804 5.3708 11.7402 0
M  V30 24 C  -32.4807 6.1954 12.8313 0
M  V30 25 N  -33.8326 6.7007 12.6471 0 CFG=1
M  V30 26 C  -33.8283 8.1153 12.3012 0
M  V30 27 C  -33.5532 9.0517 13.4699 0
M  V30 28 C  -33.6396 8.6089 14.8096 0
M  V30 29 C  -33.3728 9.4899 15.8837 0
M  V30 30 O  -33.3908 9.1016 17.2041 0
M  V30 31 C  -33.3336 7.7078 17.4881 0
M  V30 32 C  -33.0669 10.8368 15.5993 0
M  V30 33 C  -32.9817 11.2866 14.2678 0
M  V30 34 C  -33.2124 10.3916 13.2072 0
M  V30 35 H  -27.2914 7.1138 6.0005 0
M  V30 36 H  -28.7268 7.9399 6.5906 0
M  V30 37 H  -27.2906 7.7727 7.6302 0
M  V30 38 H  -29.1113 8.1264 9.0163 0
M  V30 39 H  -30.5891 7.9208 10.9514 0
M  V30 40 H  -29.6138 3.9395 8.1571 0
M  V30 41 H  -31.5705 1.5362 10.6669 0
M  V30 42 H  -30.2910 2.0344 9.6031 0
M  V30 43 H  -33.3980 -0.6811 6.8158 0
M  V30 44 H  -34.0768 3.5287 6.2470 0
M  V30 45 H  -32.6563 4.0381 8.1798 0
M  V30 46 H  -32.5192 5.5836 13.7331 0
M  V30 47 H  -31.8010 7.0087 13.0941 0
M  V30 48 H  -34.3101 6.1679 11.9353 0
M  V30 49 H  -33.1195 8.3048 11.4917 0
M  V30 50 H  -34.8146 8.3689 11.9157 0
M  V30 51 H  -33.9089 7.5835 15.0047 0
M  V30 52 H  -33.2140 7.5518 18.5591 0
M  V30 53 H  -34.2408 7.1858 17.1872 0
M  V30 54 H  -32.4810 7.2381 16.9960 0
M  V30 55 H  -32.8799 11.5255 16.4082 0
M  V30 56 H  -32.7325 12.3169 14.0612 0
M  V30 57 H  -33.1369 10.7395 12.1878 0
M  V30 END ATOM
M  V30 BEGIN BOND
M  V30 1 1 1 2
M  V30 2 1 1 35
M  V30 3 1 1 36
M  V30 4 1 1 37
M  V30 5 1 2 3
M  V30 6 1 3 8
M  V30 7 2 3 4
M  V30 8 1 4 5
M  V30 9 1 4 38
M  V30 10 2 5 6
M  V30 11 1 5 39
M  V30 12 1 6 23
M  V30 13 1 6 7
M  V30 14 2 7 8
M  V30 15 1 7 9
M  V30 16 1 8 40
M  V30 17 1 9 10
M  V30 18 1 9 19
M  V30 19 1 10 11
M  V30 20 1 10 41
M  V30 21 1 10 42
M  V30 22 1 11 18
M  V30 23 2 11 12
M  V30 24 1 12 13
M  V30 25 1 12 14
M  V30 26 2 14 15
M  V30 27 1 14 43
M  V30 28 1 15 16
M  V30 29 1 15 17
M  V30 30 2 17 18
M  V30 31 1 17 44
M  V30 32 1 18 45
M  V30 33 1 19 20
M  V30 34 2 19 23
M  V30 35 1 20 21
M  V30 36 2 20 22
M  V30 37 1 23 24
M  V30 38 1 24 25
M  V30 39 1 24 46
M  V30 40 1 24 47
M  V30 41 1 25 26
M  V30 42 1 25 48
M  V30 43 1 26 27
M  V30 44 1 26 49
M  V30 45 1 26 50
M  V30 46 1 27 34
M  V30 47 2 27 28
M  V30 48 1 28 29
M  V30 49 1 28 51
M  V30 50 1 29 30
M  V30 51 2 29 32
M  V30 52 1 30 31
M  V30 53 1 31 52
M  V30 54 1 31 53
M  V30 55 1 31 54
M  V30 56 1 32 33
M  V30 57 1 32 55
M  V30 58 2 33 34
M  V30 59 1 33 56
M  V30 60 1 34 57
M  V30 END BOND
M  V30 END CTAB
M  END
$$$$
C1
                    3D
 Schrodinger Suite 2021-2.
  0  0  0     0  0            999 V3000
M  V30 BEGIN CTAB
M  V30 COUNTS 58 61 0 0 0
M  V30 BEGIN ATOM
M  V30 1 C  -28.0797 5.2097 6.4047 0
M  V30 2 O  -28.2725 6.2866 7.2895 0
M  V30 3 C  -29.2035 6.1179 8.2827 0
M  V30 4 C  -29.5296 7.2625 9.0220 0
M  V30 5 C  -30.4699 7.2047 10.0565 0
M  V30 6 C  -31.0931 5.9885 10.4240 0
M  V30 7 C  -30.7639 4.8327 9.6624 0
M  V30 8 C  -29.8381 4.8921 8.6013 0
M  V30 9 N  -31.5045 3.7805 10.1907 0
M  V30 10 C  -31.4367 2.4036 9.6912 0
M  V30 11 C  -32.3344 2.0978 8.4883 0
M  V30 12 C  -32.5546 0.7480 8.1081 0
M  V30 13 Cl -31.8003 -0.5563 8.9577 0
M  V30 14 C  -33.3975 0.4428 7.0214 0
M  V30 15 C  -34.0143 1.4734 6.2906 0
M  V30 16 F  -34.8141 1.1766 5.2411 0
M  V30 17 C  -33.7820 2.8145 6.6426 0
M  V30 18 C  -32.9363 3.1295 7.7242 0
M  V30 19 C  -32.2266 4.2498 11.3011 0
M  V30 20 C  -33.0393 3.3237 12.1230 0
M  V30 21 O  -32.7059 3.1402 13.3155 0 CHG=-1
M  V30 22 O  -34.0143 2.7402 11.6043 0
M  V30 23 C  -32.0223 5.6040 11.4479 0
M  V30 24 C  -32.6361 6.5099 12.4806 0
M  V30 25 N  -31.5868 7.3257 13.1218 0 CHG=1
M  V30 26 C  -31.6609 8.7846 12.8744 0
M  V30 27 C  -32.4965 9.4856 13.9181 0
M  V30 28 C  -32.1350 9.3829 15.2726 0
M  V30 29 C  -32.9039 10.0285 16.2650 0
M  V30 30 O  -32.6298 9.9401 17.6042 0
M  V30 31 C  -31.6381 9.0193 18.0348 0
M  V30 32 C  -34.0128 10.8085 15.8810 0
M  V30 33 C  -34.3660 10.9294 14.5247 0
M  V30 34 C  -33.6145 10.2566 13.5436 0
M  V30 35 H  -27.4274 5.5403 5.5959 0
M  V30 36 H  -27.6144 4.3646 6.9126 0
M  V30 37 H  -29.0319 4.8893 5.9826 0
M  V30 38 H  -29.0581 8.2083 8.7894 0
M  V30 39 H  -30.6795 8.1311 10.5557 0
M  V30 40 H  -29.6207 3.9891 8.0551 0
M  V30 41 H  -31.6624 1.7126 10.5029 0
M  V30 42 H  -30.4069 2.1897 9.4110 0
M  V30 43 H  -33.5713 -0.5865 6.7443 0
M  V30 44 H  -34.2448 3.6050 6.0691 0
M  V30 45 H  -32.7644 4.1703 7.9536 0
M  V30 46 H  -33.4091 7.1345 12.0339 0
M  V30 47 H  -33.1332 5.9338 13.2612 0
M  V30 48 H  -31.6062 7.1621 14.1175 0
M  V30 49 H  -30.6538 9.2007 12.9124 0
M  V30 50 H  -32.0578 9.0053 11.8834 0
M  V30 51 H  -31.2645 8.8017 15.5326 0
M  V30 52 H  -31.6141 9.0004 19.1241 0
M  V30 53 H  -31.8571 8.0064 17.6949 0
M  V30 54 H  -30.6466 9.3149 17.6907 0
M  V30 55 H  -34.6014 11.3112 16.6363 0
M  V30 56 H  -35.2179 11.5288 14.2416 0
M  V30 57 H  -33.8931 10.3390 12.5035 0
M  V30 58 H  -30.7026 6.9936 12.7617 0
M  V30 END ATOM
M  V30 BEGIN BOND
M  V30 1 1 1 2
M  V30 2 1 1 35
M  V30 3 1 1 36
M  V30 4 1 1 37
M  V30 5 1 2 3
M  V30 6 1 3 8
M  V30 7 2 3 4
M  V30 8 1 4 5
M  V30 9 1 4 38
M  V30 10 2 5 6
M  V30 11 1 5 39
M  V30 12 1 6 23
M  V30 13 1 6 7
M  V30 14 2 7 8
M  V30 15 1 7 9
M  V30 16 1 8 40
M  V30 17 1 9 10
M  V30 18 1 9 19
M  V30 19 1 10 11
M  V30 20 1 10 41
M  V30 21 1 10 42
M  V30 22 1 11 18
M  V30 23 2 11 12
M  V30 24 1 12 13
M  V30 25 1 12 14
M  V30 26 2 14 15
M  V30 27 1 14 43
M  V30 28 1 15 16
M  V30 29 1 15 17
M  V30 30 2 17 18
M  V30 31 1 17 44
M  V30 32 1 18 45
M  V30 33 1 19 20
M  V30 34 2 19 23
M  V30 35 1 20 21
M  V30 36 2 20 22
M  V30 37 1 23 24
M  V30 38 1 24 25
M  V30 39 1 24 46
M  V30 40 1 24 47
M  V30 41 1 25 26
M  V30 42 1 25 48
M  V30 43 1 25 58
M  V30 44 1 26 27
M  V30 45 1 26 49
M  V30 46 1 26 50
M  V30 47 1 27 34
M  V30 48 2 27 28
M  V30 49 1 28 29
M  V30 50 1 28 51
M  V30 51 1 29 30
M  V30 52 2 29 32
M  V30 53 1 30 31
M  V30 54 1 31 52
M  V30 55 1 31 53
M  V30 56 1 31 54
M  V30 57 1 32 33
M  V30 58 1 32 55
M  V30 59 2 33 34
M  V30 60 1 33 56
M  V30 61 1 34 57
M  V30 END BOND
M  V30 END CTAB
M  END
$$$$
C8
                    3D
 Schrodinger Suite 2021-2.
  0  0  0     0  0            999 V3000
M  V30 BEGIN CTAB
M  V30 COUNTS 63 66 0 0 0
M  V30 BEGIN ATOM
M  V30 1 C  -34.0558 9.8386 16.9730 0
M  V30 2 C  -32.7947 8.9796 16.9140 0
M  V30 3 O  -31.7046 9.5041 17.1586 0
M  V30 4 C  -32.9925 7.5282 16.5951 0
M  V30 5 C  -32.6934 6.5280 17.5580 0
M  V30 6 O  -32.2318 6.8657 18.8047 0 CHG=-1
M  V30 7 C  -32.8810 5.1609 17.2437 0
M  V30 8 C  -32.5815 4.0930 18.2942 0
M  V30 9 C  -33.3371 4.7858 15.9571 0
M  V30 10 O  -33.4924 3.4547 15.6812 0
M  V30 11 C  -33.6130 5.7670 14.9711 0
M  V30 12 C  -34.1189 5.3493 13.5790 0
M  V30 13 C  -33.0652 5.4493 12.4642 0
M  V30 14 C  -32.9467 6.6449 11.7112 0
M  V30 15 O  -33.9083 7.6186 11.7960 0 CHG=-1
M  V30 16 C  -31.8749 6.8104 10.8043 0
M  V30 17 C  -31.7017 8.0343 10.0255 0
M  V30 18 C  -30.6858 8.1635 9.1663 0
M  V30 19 C  -29.6562 7.0724 8.9670 0
M  V30 20 C  -28.3474 7.4557 9.6711 0
M  V30 21 C  -29.4338 6.8235 7.4675 0
M  V30 22 O  -30.0625 5.8106 9.5051 0
M  V30 23 C  -31.0135 5.7347 10.5095 0
M  V30 24 C  -31.2313 4.4871 11.1282 0
M  V30 25 C  -30.4352 3.3421 10.6047 0
M  V30 26 O  -29.2655 3.1443 10.9406 0
M  V30 27 C  -31.0985 2.4720 9.6145 0
M  V30 28 C  -32.0810 2.9327 8.8130 0
M  V30 29 C  -32.8439 2.1608 7.8257 0
M  V30 30 C  -33.6192 2.8622 6.8756 0
M  V30 31 C  -34.4142 2.1741 5.9409 0
M  V30 32 C  -34.4148 0.7699 5.9260 0
M  V30 33 C  -33.6137 0.0626 6.8403 0
M  V30 34 C  -32.8266 0.7490 7.7845 0
M  V30 35 C  -32.2267 4.3461 12.1390 0
M  V30 36 O  -32.4154 3.1405 12.7682 0 CHG=-1
M  V30 37 C  -33.4420 7.1394 15.3037 0
M  V30 38 O  -33.7193 8.1118 14.3812 0
M  V30 39 H  -34.6423 9.7446 16.0606 0
M  V30 40 H  -34.6726 9.5358 17.8172 0
M  V30 41 H  -33.7952 10.8872 17.1033 0
M  V30 42 H  -32.8418 4.4380 19.2939 0
M  V30 43 H  -33.1457 3.1762 18.1343 0
M  V30 44 H  -31.5193 3.8545 18.2869 0
M  V30 45 H  -32.8220 2.9624 16.1306 0
M  V30 46 H  -34.9895 5.9579 13.3366 0
M  V30 47 H  -34.5241 4.3397 13.6017 0
M  V30 48 H  -32.4127 8.8365 10.1570 0
M  V30 49 H  -30.5585 9.0753 8.5995 0
M  V30 50 H  -27.9114 8.3538 9.2326 0
M  V30 51 H  -28.5159 7.6513 10.7305 0
M  V30 52 H  -27.6161 6.6519 9.5993 0
M  V30 53 H  -29.0792 7.7227 6.9627 0
M  V30 54 H  -28.6940 6.0391 7.3032 0
M  V30 55 H  -30.3595 6.5150 6.9799 0
M  V30 56 H  -30.7532 1.4515 9.5547 0
M  V30 57 H  -32.3712 3.9703 8.8879 0
M  V30 58 H  -33.6164 3.9405 6.8622 0
M  V30 59 H  -35.0105 2.7228 5.2261 0
M  V30 60 H  -35.0217 0.2393 5.2088 0
M  V30 61 H  -33.6184 -1.0153 6.8268 0
M  V30 62 H  -32.2373 0.1780 8.4858 0
M  V30 63 H  -33.7516 7.8185 13.4580 0
M  V30 END ATOM
M  V30 BEGIN BOND
M  V30 1 1 1 2
M  V30 2 1 1 39
M  V30 3 1 1 40
M  V30 4 1 1 41
M  V30 5 2 2 3
M  V30 6 1 2 4
M  V30 7 1 4 37
M  V30 8 2 4 5
M  V30 9 1 5 6
M  V30 10 1 5 7
M  V30 11 1 7 8
M  V30 12 2 7 9
M  V30 13 1 8 42
M  V30 14 1 8 43
M  V30 15 1 8 44
M  V30 16 1 9 10
M  V30 17 1 9 11
M  V30 18 1 10 45
M  V30 19 1 11 12
M  V30 20 2 11 37
M  V30 21 1 12 13
M  V30 22 1 12 46
M  V30 23 1 12 47
M  V30 24 1 13 35
M  V30 25 2 13 14
M  V30 26 1 14 15
M  V30 27 1 14 16
M  V30 28 2 16 23
M  V30 29 1 16 17
M  V30 30 2 17 18
M  V30 31 1 17 48
M  V30 32 1 18 19
M  V30 33 1 18 49
M  V30 34 1 19 20
M  V30 35 1 19 21
M  V30 36 1 19 22
M  V30 37 1 20 50
M  V30 38 1 20 51
M  V30 39 1 20 52
M  V30 40 1 21 53
M  V30 41 1 21 54
M  V30 42 1 21 55
M  V30 43 1 22 23
M  V30 44 1 23 24
M  V30 45 1 24 25
M  V30 46 2 24 35
M  V30 47 2 25 26
M  V30 48 1 25 27
M  V30 49 2 27 28
M  V30 50 1 27 56
M  V30 51 1 28 29
M  V30 52 1 28 57
M  V30 53 1 29 34
M  V30 54 2 29 30
M  V30 55 1 30 31
M  V30 56 1 30 58
M  V30 57 2 31 32
M  V30 58 1 31 59
M  V30 59 1 32 33
M  V30 60 1 32 60
M  V30 61 2 33 34
M  V30 62 1 33 61
M  V30 63 1 34 62
M  V30 64 1 35 36
M  V30 65 1 37 38
M  V30 66 1 38 63
M  V30 END BOND
M  V30 END CTAB
M  END
$$$$
C8
                    3D
 Schrodinger Suite 2021-2.
  0  0  0     0  0            999 V3000
M  V30 BEGIN CTAB
M  V30 COUNTS 64 67 0 0 0
M  V30 BEGIN ATOM
M  V30 1 C  -34.7990 1.6586 5.1588 0
M  V30 2 C  -34.3407 2.4165 6.4041 0
M  V30 3 O  -34.8143 3.5383 6.5872 0
M  V30 4 C  -33.3362 1.7871 7.3424 0
M  V30 5 C  -33.2135 0.3817 7.5003 0
M  V30 6 O  -34.0143 -0.4599 6.7909 0
M  V30 7 C  -32.2705 -0.1642 8.4043 0
M  V30 8 C  -32.0694 -1.6598 8.5565 0
M  V30 9 C  -31.4804 0.6855 9.1939 0
M  V30 10 O  -30.5317 0.1494 10.0042 0
M  V30 11 C  -31.6063 2.0776 9.0935 0
M  V30 12 C  -30.6807 2.9801 9.9171 0
M  V30 13 C  -31.2435 3.9715 10.9536 0
M  V30 14 C  -32.5700 3.9406 11.4774 0
M  V30 15 O  -33.4364 2.9028 11.2271 0 CHG=-1
M  V30 16 C  -33.0091 5.0069 12.2995 0
M  V30 17 C  -34.3967 5.1013 12.7726 0
M  V30 18 C  -34.8570 6.2553 13.2667 0
M  V30 19 C  -33.9608 7.4763 13.3703 0
M  V30 20 C  -34.1898 8.2104 14.6992 0
M  V30 21 C  -34.1691 8.3989 12.1539 0
M  V30 22 O  -32.5788 7.1231 13.4129 0
M  V30 23 C  -32.1310 6.0641 12.6463 0
M  V30 24 C  -30.7698 6.0265 12.2604 0
M  V30 25 C  -29.8414 7.1024 12.7659 0
M  V30 26 O  -29.8891 7.4805 13.9404 0
M  V30 27 C  -28.8821 7.7131 11.8146 0
M  V30 28 C  -27.8850 8.5193 12.2413 0
M  V30 29 C  -26.8519 9.1726 11.4129 0
M  V30 30 C  -25.8468 9.9317 12.0521 0
M  V30 31 C  -24.8348 10.5630 11.3026 0
M  V30 32 C  -24.8154 10.4460 9.9009 0
M  V30 33 C  -25.8151 9.7018 9.2512 0
M  V30 34 C  -26.8205 9.0650 10.0039 0
M  V30 35 C  -30.3391 4.9684 11.4153 0
M  V30 36 O  -29.0168 4.8605 11.0716 0 CHG=-1
M  V30 37 C  -32.5052 2.6139 8.1471 0
M  V30 38 O  -32.5159 3.9601 8.0042 0
M  V30 39 H  -33.9689 1.1117 4.7126 0
M  V30 40 H  -35.5872 0.9514 5.4178 0
M  V30 41 H  -35.2015 2.3400 4.4090 0
M  V30 42 H  -33.6168 -1.3012 6.5873 0
M  V30 43 H  -32.8142 -2.2137 8.0052 0
M  V30 44 H  -31.0850 -1.9471 8.1864 0
M  V30 45 H  -32.1554 -1.9600 9.6008 0
M  V30 46 H  -30.5212 -0.7936 9.9858 0
M  V30 47 H  -30.1391 3.5638 9.1724 0
M  V30 48 H  -29.9047 2.4068 10.4193 0
M  V30 49 H  -35.0321 4.2321 12.7107 0
M  V30 50 H  -35.8786 6.3424 13.6043 0
M  V30 51 H  -35.2141 8.5555 14.8044 0
M  V30 52 H  -33.9739 7.5586 15.5459 0
M  V30 53 H  -33.5383 9.0803 14.7831 0
M  V30 54 H  -35.2132 8.6799 12.0253 0
M  V30 55 H  -33.5816 9.3134 12.2466 0
M  V30 56 H  -33.8559 7.9063 11.2331 0
M  V30 57 H  -29.0068 7.4769 10.7686 0
M  V30 58 H  -27.8074 8.7220 13.3003 0
M  V30 59 H  -25.8478 10.0363 13.1272 0
M  V30 60 H  -24.0745 11.1399 11.8043 0
M  V30 61 H  -24.0435 10.9348 9.3250 0
M  V30 62 H  -25.8269 9.6236 8.1727 0
M  V30 63 H  -27.5804 8.5110 9.4734 0
M  V30 64 H  -32.9608 4.2930 7.2328 0
M  V30 END ATOM
M  V30 BEGIN BOND
M  V30 1 1 1 2
M  V30 2 1 1 39
M  V30 3 1 1 40
M  V30 4 1 1 41
M  V30 5 2 2 3
M  V30 6 1 2 4
M  V30 7 1 4 37
M  V30 8 2 4 5
M  V30 9 1 5 6
M  V30 10 1 5 7
M  V30 11 1 6 42
M  V30 12 1 7 8
M  V30 13 2 7 9
M  V30 14 1 8 43
M  V30 15 1 8 44
M  V30 16 1 8 45
M  V30 17 1 9 10
M  V30 18 1 9 11
M  V30 19 1 10 46
M  V30 20 1 11 12
M  V30 21 2 11 37
M  V30 22 1 12 13
M  V30 23 1 12 47
M  V30 24 1 12 48
M  V30 25 1 13 35
M  V30 26 2 13 14
M  V30 27 1 14 15
M  V30 28 1 14 16
M  V30 29 2 16 23
M  V30 30 1 16 17
M  V30 31 2 17 18
M  V30 32 1 17 49
M  V30 33 1 18 19
M  V30 34 1 18 50
M  V30 35 1 19 20
M  V30 36 1 19 21
M  V30 37 1 19 22
M  V30 38 1 20 51
M  V30 39 1 20 52
M  V30 40 1 20 53
M  V30 41 1 21 54
M  V30 42 1 21 55
M  V30 43 1 21 56
M  V30 44 1 22 23
M  V30 45 1 23 24
M  V30 46 1 24 25
M  V30 47 2 24 35
M  V30 48 2 25 26
M  V30 49 1 25 27
M  V30 50 2 27 28
M  V30 51 1 27 57
M  V30 52 1 28 29
M  V30 53 1 28 58
M  V30 54 1 29 34
M  V30 55 2 29 30
M  V30 56 1 30 31
M  V30 57 1 30 59
M  V30 58 2 31 32
M  V30 59 1 31 60
M  V30 60 1 32 33
M  V30 61 1 32 61
M  V30 62 2 33 34
M  V30 63 1 33 62
M  V30 64 1 34 63
M  V30 65 1 35 36
M  V30 66 1 37 38
M  V30 67 1 38 64
M  V30 END BOND
M  V30 END CTAB
M  END
$$$$
C7
                    3D
 Schrodinger Suite 2021-2.
  0  0  0     0  0            999 V3000
M  V30 BEGIN CTAB
M  V30 COUNTS 75 78 0 0 0
M  V30 BEGIN ATOM
M  V30 1 O  -25.7085 8.4285 12.0036 0
M  V30 2 C  -26.6696 8.6659 11.2734 0
M  V30 3 C  -28.0489 8.4387 11.7645 0
M  V30 4 C  -29.0962 7.9352 11.0125 0
M  V30 5 C  -29.1723 7.4543 9.5707 0
M  V30 6 C  -30.3014 8.1188 8.7645 0
M  V30 7 C  -29.2038 5.9231 9.4237 0
M  V30 8 N  -30.2334 7.9364 11.8417 0
M  V30 9 C  -31.5885 7.5044 11.4877 0
M  V30 10 C  -32.6566 8.1471 12.3879 0
M  V30 11 C  -34.0605 8.1503 11.7583 0 CFG=1
M  V30 12 O  -33.9732 8.7552 10.4837 0
M  V30 13 C  -34.6305 6.7245 11.6042 0
M  V30 14 C  -34.5678 5.8626 12.8841 0 CFG=1
M  V30 15 O  -35.7747 5.1345 13.0329 0
M  V30 16 C  -33.3496 4.9053 12.8689 0
M  V30 17 C  -33.6713 3.4384 13.1965 0
M  V30 18 O  -32.7933 2.7395 13.7510 0 CHG=-1
M  V30 19 O  -34.8086 3.0360 12.8698 0
M  V30 20 C  -29.8812 8.4241 13.0965 0
M  V30 21 C  -30.8453 8.5079 14.1880 0
M  V30 22 C  -31.7538 9.5853 14.2628 0
M  V30 23 C  -32.6758 9.6680 15.3242 0
M  V30 24 C  -32.6922 8.6740 16.3209 0
M  V30 25 C  -31.7861 7.5987 16.2551 0
M  V30 26 C  -30.8646 7.5185 15.1931 0
M  V30 27 F  -33.5768 8.7538 17.3428 0
M  V30 28 C  -28.5576 8.7441 13.0585 0
M  V30 29 C  -27.7958 9.2931 14.1965 0
M  V30 30 C  -26.5222 8.7783 14.5262 0
M  V30 31 C  -25.7919 9.2986 15.6121 0
M  V30 32 C  -26.3300 10.3435 16.3858 0
M  V30 33 C  -27.5981 10.8649 16.0697 0
M  V30 34 C  -28.3235 10.3419 14.9818 0
M  V30 35 N  -26.5588 9.0909 10.0034 0
M  V30 36 C  -25.3832 9.3946 9.2649 0
M  V30 37 C  -24.1338 9.6753 9.8702 0
M  V30 38 C  -23.0044 9.9468 9.0736 0
M  V30 39 C  -23.1084 9.9307 7.6701 0
M  V30 40 C  -24.3428 9.6354 7.0621 0
M  V30 41 C  -25.4730 9.3631 7.8569 0
M  V30 42 H  -28.2656 7.7395 9.0469 0
M  V30 43 H  -30.2408 9.2047 8.8099 0
M  V30 44 H  -30.2427 7.8359 7.7131 0
M  V30 45 H  -31.2897 7.8373 9.1146 0
M  V30 46 H  -28.3735 5.4637 9.9608 0
M  V30 47 H  -30.1269 5.4808 9.7932 0
M  V30 48 H  -29.1129 5.6343 8.3762 0
M  V30 49 H  -31.7933 7.7643 10.4504 0
M  V30 50 H  -31.6520 6.4188 11.4962 0
M  V30 51 H  -32.6947 7.6406 13.3501 0
M  V30 52 H  -32.3572 9.1743 12.5990 0
M  V30 53 H  -34.7343 8.7397 12.3817 0
M  V30 54 H  -33.4456 9.5385 10.5758 0
M  V30 55 H  -35.6518 6.7623 11.2219 0
M  V30 56 H  -34.0480 6.2126 10.8371 0
M  V30 57 H  -34.4731 6.5231 13.7474 0
M  V30 58 H  -36.4677 5.7735 13.1477 0
M  V30 59 H  -32.8728 4.9333 11.8884 0
M  V30 60 H  -32.6026 5.2476 13.5855 0
M  V30 61 H  -31.7432 10.3516 13.5014 0
M  V30 62 H  -33.3696 10.4938 15.3749 0
M  V30 63 H  -31.7971 6.8365 17.0201 0
M  V30 64 H  -30.1693 6.6929 15.1487 0
M  V30 65 H  -26.0997 7.9744 13.9415 0
M  V30 66 H  -24.8189 8.8950 15.8506 0
M  V30 67 H  -25.7714 10.7445 17.2187 0
M  V30 68 H  -28.0151 11.6677 16.6597 0
M  V30 69 H  -29.2932 10.7545 14.7457 0
M  V30 70 H  -27.4327 9.2943 9.5420 0
M  V30 71 H  -24.0151 9.6753 10.9430 0
M  V30 72 H  -22.0555 10.1631 9.5420 0
M  V30 73 H  -22.2409 10.1387 7.0610 0
M  V30 74 H  -24.4227 9.6166 5.9851 0
M  V30 75 H  -26.4126 9.1361 7.3753 0
M  V30 END ATOM
M  V30 BEGIN BOND
M  V30 1 2 1 2
M  V30 2 1 2 3
M  V30 3 1 2 35
M  V30 4 1 3 28
M  V30 5 2 3 4
M  V30 6 1 4 5
M  V30 7 1 4 8
M  V30 8 1 5 6
M  V30 9 1 5 7
M  V30 10 1 5 42
M  V30 11 1 6 43
M  V30 12 1 6 44
M  V30 13 1 6 45
M  V30 14 1 7 46
M  V30 15 1 7 47
M  V30 16 1 7 48
M  V30 17 1 8 9
M  V30 18 1 8 20
M  V30 19 1 9 10
M  V30 20 1 9 49
M  V30 21 1 9 50
M  V30 22 1 10 11
M  V30 23 1 10 51
M  V30 24 1 10 52
M  V30 25 1 11 12
M  V30 26 1 11 13
M  V30 27 1 11 53
M  V30 28 1 12 54
M  V30 29 1 13 14
M  V30 30 1 13 55
M  V30 31 1 13 56
M  V30 32 1 14 15
M  V30 33 1 14 16
M  V30 34 1 14 57
M  V30 35 1 15 58
M  V30 36 1 16 17
M  V30 37 1 16 59
M  V30 38 1 16 60
M  V30 39 1 17 18
M  V30 40 2 17 19
M  V30 41 1 20 21
M  V30 42 2 20 28
M  V30 43 1 21 26
M  V30 44 2 21 22
M  V30 45 1 22 23
M  V30 46 1 22 61
M  V30 47 2 23 24
M  V30 48 1 23 62
M  V30 49 1 24 25
M  V30 50 1 24 27
M  V30 51 2 25 26
M  V30 52 1 25 63
M  V30 53 1 26 64
M  V30 54 1 28 29
M  V30 55 1 29 34
M  V30 56 2 29 30
M  V30 57 1 30 31
M  V30 58 1 30 65
M  V30 59 2 31 32
M  V30 60 1 31 66
M  V30 61 1 32 33
M  V30 62 1 32 67
M  V30 63 2 33 34
M  V30 64 1 33 68
M  V30 65 1 34 69
M  V30 66 1 35 36
M  V30 67 1 35 70
M  V30 68 1 36 41
M  V30 69 2 36 37
M  V30 70 1 37 38
M  V30 71 1 37 71
M  V30 72 2 38 39
M  V30 73 1 38 72
M  V30 74 1 39 40
M  V30 75 1 39 73
M  V30 76 2 40 41
M  V30 77 1 40 74
M  V30 78 1 41 75
M  V30 END BOND
M  V30 END CTAB
M  END
$$$$
C2
                    3D
 Schrodinger Suite 2021-2.
  0  0  0     0  0            999 V3000
M  V30 BEGIN CTAB
M  V30 COUNTS 61 64 0 0 0
M  V30 BEGIN ATOM
M  V30 1 C  -27.9205 7.3045 6.8016 0
M  V30 2 O  -28.4094 6.0481 7.2469 0
M  V30 3 C  -29.3084 6.0366 8.2913 0
M  V30 4 C  -29.6783 7.1795 9.0375 0
M  V30 5 C  -30.6100 7.0740 10.0874 0
M  V30 6 C  -31.2080 5.8374 10.4346 0
M  V30 7 C  -30.8184 4.6976 9.6815 0
M  V30 8 C  -29.8863 4.7989 8.6256 0
M  V30 9 N  -31.5133 3.6104 10.2001 0
M  V30 10 C  -31.3669 2.2550 9.6623 0
M  V30 11 C  -32.2999 1.9884 8.4878 0
M  V30 12 C  -32.8166 3.0571 7.7225 0
M  V30 13 C  -33.6714 2.8031 6.6323 0
M  V30 14 C  -34.0124 1.4790 6.2975 0
M  V30 15 F  -34.8332 1.2353 5.2481 0
M  V30 16 C  -33.4968 0.4089 7.0529 0
M  V30 17 C  -32.6410 0.6633 8.1422 0
M  V30 18 C  -32.3188 4.0509 11.2740 0
M  V30 19 C  -33.1708 3.1227 12.0864 0
M  V30 20 O  -32.8148 2.7424 13.2213 0 CHG=-1
M  V30 21 O  -34.2603 2.7404 11.6068 0
M  V30 22 C  -32.1689 5.4176 11.4155 0
M  V30 23 C  -32.8659 6.2908 12.4272 0
M  V30 24 N  -33.9736 7.1423 12.0206 0 CFG=2
M  V30 25 C  -33.4753 8.4340 11.5718 0
M  V30 26 C  -32.8400 9.2305 12.7023 0
M  V30 27 C  -33.6160 10.2044 13.3681 0
M  V30 28 C  -33.0717 10.9718 14.4251 0
M  V30 29 O  -33.7691 11.9321 15.1261 0
M  V30 30 C  -35.1860 11.9336 15.0249 0
M  V30 31 C  -31.7325 10.7515 14.7956 0
M  V30 32 C  -30.9486 9.7890 14.1330 0
M  V30 33 C  -31.4917 9.0160 13.0765 0
M  V30 34 O  -30.7722 8.0598 12.3890 0
M  V30 35 C  -29.3832 7.9349 12.6558 0
M  V30 36 H  -27.2267 7.1482 5.9758 0
M  V30 37 H  -28.7287 7.9402 6.4375 0
M  V30 38 H  -27.3794 7.8247 7.5931 0
M  V30 39 H  -29.2629 8.1527 8.8255 0
M  V30 40 H  -30.8694 7.9639 10.6393 0
M  V30 41 H  -29.6083 3.9236 8.0596 0
M  V30 42 H  -31.4861 1.5186 10.4553 0
M  V30 43 H  -30.3436 2.1104 9.3196 0
M  V30 44 H  -32.5633 4.0768 7.9693 0
M  V30 45 H  -34.0665 3.6244 6.0534 0
M  V30 46 H  -33.7592 -0.6074 6.8000 0
M  V30 47 H  -32.2547 -0.1634 8.7206 0
M  V30 48 H  -33.2522 5.6651 13.2323 0
M  V30 49 H  -32.1068 6.9250 12.8874 0
M  V30 50 H  -34.5154 7.3162 12.8551 0
M  V30 51 H  -32.7771 8.2810 10.7487 0
M  V30 52 H  -34.3006 9.0302 11.1801 0
M  V30 53 H  -34.6376 10.3427 13.0476 0
M  V30 54 H  -35.5901 12.7359 15.6420 0
M  V30 55 H  -35.5121 12.1109 13.9991 0
M  V30 56 H  -35.6129 10.9956 15.3828 0
M  V30 57 H  -31.2997 11.3287 15.5993 0
M  V30 58 H  -29.9275 9.6640 14.4582 0
M  V30 59 H  -28.9694 7.1389 12.0369 0
M  V30 60 H  -28.8463 8.8530 12.4135 0
M  V30 61 H  -29.1993 7.6708 13.6980 0
M  V30 END ATOM
M  V30 BEGIN BOND
M  V30 1 1 1 2
M  V30 2 1 1 36
M  V30 3 1 1 37
M  V30 4 1 1 38
M  V30 5 1 2 3
M  V30 6 1 3 8
M  V30 7 2 3 4
M  V30 8 1 4 5
M  V30 9 1 4 39
M  V30 10 2 5 6
M  V30 11 1 5 40
M  V30 12 1 6 22
M  V30 13 1 6 7
M  V30 14 2 7 8
M  V30 15 1 7 9
M  V30 16 1 8 41
M  V30 17 1 9 10
M  V30 18 1 9 18
M  V30 19 1 10 11
M  V30 20 1 10 42
M  V30 21 1 10 43
M  V30 22 1 11 17
M  V30 23 2 11 12
M  V30 24 1 12 13
M  V30 25 1 12 44
M  V30 26 2 13 14
M  V30 27 1 13 45
M  V30 28 1 14 15
M  V30 29 1 14 16
M  V30 30 2 16 17
M  V30 31 1 16 46
M  V30 32 1 17 47
M  V30 33 1 18 19
M  V30 34 2 18 22
M  V30 35 1 19 20
M  V30 36 2 19 21
M  V30 37 1 22 23
M  V30 38 1 23 24
M  V30 39 1 23 48
M  V30 40 1 23 49
M  V30 41 1 24 25
M  V30 42 1 24 50
M  V30 43 1 25 26
M  V30 44 1 25 51
M  V30 45 1 25 52
M  V30 46 1 26 33
M  V30 47 2 26 27
M  V30 48 1 27 28
M  V30 49 1 27 53
M  V30 50 1 28 29
M  V30 51 2 28 31
M  V30 52 1 29 30
M  V30 53 1 30 54
M  V30 54 1 30 55
M  V30 55 1 30 56
M  V30 56 1 31 32
M  V30 57 1 31 57
M  V30 58 2 32 33
M  V30 59 1 32 58
M  V30 60 1 33 34
M  V30 61 1 34 35
M  V30 62 1 35 59
M  V30 63 1 35 60
M  V30 64 1 35 61
M  V30 END BOND
M  V30 END CTAB
M  END
$$$$
C2
                    3D
 Schrodinger Suite 2021-2.
  0  0  0     0  0            999 V3000
M  V30 BEGIN CTAB
M  V30 COUNTS 62 65 0 0 0
M  V30 BEGIN ATOM
M  V30 1 C  -28.2004 7.3190 6.7203 0
M  V30 2 O  -28.4973 6.0118 7.1894 0
M  V30 3 C  -29.4069 5.8815 8.2160 0
M  V30 4 C  -29.8400 7.0654 8.8409 0
M  V30 5 C  -30.7712 7.0270 9.8953 0
M  V30 6 C  -31.3024 5.8018 10.3614 0
M  V30 7 C  -30.8581 4.6092 9.7291 0
M  V30 8 C  -29.9247 4.6457 8.6707 0
M  V30 9 N  -31.5196 3.5534 10.3505 0
M  V30 10 C  -31.3480 2.1578 9.9388 0
M  V30 11 C  -32.2333 1.8021 8.7528 0
M  V30 12 C  -32.4887 0.4507 8.4367 0
M  V30 13 C  -33.3079 0.1192 7.3400 0
M  V30 14 C  -33.8719 1.1377 6.5487 0
M  V30 15 F  -34.6599 0.8201 5.4943 0
M  V30 16 C  -33.6149 2.4878 6.8539 0
M  V30 17 C  -32.7967 2.8192 7.9514 0
M  V30 18 C  -32.3603 4.0710 11.3590 0
M  V30 19 C  -33.2271 3.2143 12.2258 0
M  V30 20 O  -32.8053 2.7437 13.3004 0 CHG=-1
M  V30 21 O  -34.3968 2.9919 11.8407 0
M  V30 22 C  -32.2398 5.4454 11.3808 0
M  V30 23 C  -32.9467 6.4011 12.2974 0
M  V30 24 N  -32.5572 7.7858 11.9781 0 CHG=1
M  V30 25 C  -33.3833 8.8167 12.6276 0
M  V30 26 C  -33.0626 8.8875 14.1087 0
M  V30 27 C  -33.1377 7.7161 14.8903 0
M  V30 28 C  -32.8511 7.7425 16.2682 0
M  V30 29 O  -32.9477 6.5495 16.9507 0
M  V30 30 C  -32.8325 6.5766 18.3659 0
M  V30 31 C  -32.4858 8.9741 16.8623 0
M  V30 32 C  -32.4154 10.1481 16.0886 0
M  V30 33 C  -32.7056 10.1197 14.7022 0
M  V30 34 O  -32.6716 11.2338 13.8885 0
M  V30 35 C  -31.7729 12.2825 14.2213 0
M  V30 36 H  -27.4689 7.2548 5.9149 0
M  V30 37 H  -29.0885 7.8103 6.3204 0
M  V30 38 H  -27.7691 7.9372 7.5089 0
M  V30 39 H  -29.4518 8.0162 8.5053 0
M  V30 40 H  -31.0814 7.9544 10.3520 0
M  V30 41 H  -29.6202 3.7174 8.2154 0
M  V30 42 H  -31.5046 1.4880 10.7823 0
M  V30 43 H  -30.3113 1.9872 9.6531 0
M  V30 44 H  -32.0628 -0.3381 9.0399 0
M  V30 45 H  -33.5042 -0.9170 7.1076 0
M  V30 46 H  -34.0459 3.2689 6.2455 0
M  V30 47 H  -32.6063 3.8578 8.1756 0
M  V30 48 H  -34.0278 6.2925 12.1993 0
M  V30 49 H  -32.7054 6.1924 13.3398 0
M  V30 50 H  -31.5888 7.9281 12.2229 0
M  V30 51 H  -33.1966 9.7827 12.1561 0
M  V30 52 H  -34.4419 8.5930 12.4888 0
M  V30 53 H  -33.4216 6.7794 14.4318 0
M  V30 54 H  -32.9399 5.5641 18.7548 0
M  V30 55 H  -31.8560 6.9481 18.6795 0
M  V30 56 H  -33.6147 7.1878 18.8182 0
M  V30 57 H  -32.2567 9.0463 17.9146 0
M  V30 58 H  -32.1374 11.0629 16.5894 0
M  V30 59 H  -31.8662 13.0826 13.4871 0
M  V30 60 H  -31.9994 12.7066 15.2005 0
M  V30 61 H  -30.7371 11.9407 14.2055 0
M  V30 62 H  -32.6607 7.8862 10.9736 0
M  V30 END ATOM
M  V30 BEGIN BOND
M  V30 1 1 1 2
M  V30 2 1 1 36
M  V30 3 1 1 37
M  V30 4 1 1 38
M  V30 5 1 2 3
M  V30 6 1 3 8
M  V30 7 2 3 4
M  V30 8 1 4 5
M  V30 9 1 4 39
M  V30 10 2 5 6
M  V30 11 1 5 40
M  V30 12 1 6 22
M  V30 13 1 6 7
M  V30 14 2 7 8
M  V30 15 1 7 9
M  V30 16 1 8 41
M  V30 17 1 9 10
M  V30 18 1 9 18
M  V30 19 1 10 11
M  V30 20 1 10 42
M  V30 21 1 10 43
M  V30 22 1 11 17
M  V30 23 2 11 12
M  V30 24 1 12 13
M  V30 25 1 12 44
M  V30 26 2 13 14
M  V30 27 1 13 45
M  V30 28 1 14 15
M  V30 29 1 14 16
M  V30 30 2 16 17
M  V30 31 1 16 46
M  V30 32 1 17 47
M  V30 33 1 18 19
M  V30 34 2 18 22
M  V30 35 1 19 20
M  V30 36 2 19 21
M  V30 37 1 22 23
M  V30 38 1 23 24
M  V30 39 1 23 48
M  V30 40 1 23 49
M  V30 41 1 24 25
M  V30 42 1 24 50
M  V30 43 1 24 62
M  V30 44 1 25 26
M  V30 45 1 25 51
M  V30 46 1 25 52
M  V30 47 1 26 33
M  V30 48 2 26 27
M  V30 49 1 27 28
M  V30 50 1 27 53
M  V30 51 1 28 29
M  V30 52 2 28 31
M  V30 53 1 29 30
M  V30 54 1 30 54
M  V30 55 1 30 55
M  V30 56 1 30 56
M  V30 57 1 31 32
M  V30 58 1 31 57
M  V30 59 2 32 33
M  V30 60 1 32 58
M  V30 61 1 33 34
M  V30 62 1 34 35
M  V30 63 1 35 59
M  V30 64 1 35 60
M  V30 65 1 35 61
M  V30 END BOND
M  V30 END CTAB
M  END
$$$$
C9
                    3D
 Schrodinger Suite 2021-2.
  0  0  0     0  0            999 V3000
M  V30 BEGIN CTAB
M  V30 COUNTS 54 58 0 0 0
M  V30 BEGIN ATOM
M  V30 1 C  -34.3652 10.4636 16.2883 0
M  V30 2 O  -33.6904 9.3252 16.8068 0
M  V30 3 C  -33.6143 8.1997 16.0159 0
M  V30 4 C  -33.1199 7.0237 16.6212 0
M  V30 5 C  -33.0132 5.8242 15.8892 0
M  V30 6 C  -33.4065 5.7985 14.5384 0
M  V30 7 C  -33.9027 6.9615 13.9172 0
M  V30 8 C  -34.0098 8.1569 14.6543 0
M  V30 9 S  -33.1987 4.3133 13.5638 0
M  V30 10 O  -32.9246 3.1529 14.4279 0
M  V30 11 O  -34.2453 4.2508 12.5332 0
M  V30 12 N  -31.7131 4.6691 12.7552 0
M  V30 13 C  -31.4184 4.5447 11.3946 0
M  V30 14 C  -31.8925 3.4233 10.6909 0
M  V30 15 C  -31.5741 3.2163 9.3356 0
M  V30 16 C  -30.7727 4.1734 8.6727 0
M  V30 17 O  -30.4416 3.9627 7.3636 0 CHG=-1
M  V30 18 C  -30.3093 5.3259 9.3550 0
M  V30 19 C  -29.5239 6.2954 8.6870 0
M  V30 20 C  -29.0628 7.4379 9.3642 0
M  V30 21 C  -29.3799 7.6254 10.7190 0
M  V30 22 C  -30.1571 6.6696 11.3978 0
M  V30 23 C  -30.6294 5.5131 10.7271 0
M  V30 24 C  -32.0556 1.9794 8.6843 0
M  V30 25 C  -31.5191 0.7424 9.1061 0
M  V30 26 O  -30.4954 0.7296 10.0041 0
M  V30 27 C  -31.9886 -0.4710 8.5763 0
M  V30 28 C  -32.9977 -0.4593 7.6027 0
M  V30 29 C  -33.5514 0.7525 7.1637 0
M  V30 30 C  -34.6007 0.7377 6.2219 0
M  V30 31 C  -35.1946 1.9449 5.8148 0
M  V30 32 C  -34.7034 3.1617 6.3098 0
M  V30 33 C  -33.6182 3.1786 7.2039 0
M  V30 34 C  -33.0650 1.9760 7.6865 0
M  V30 35 H  -34.4131 11.2319 17.0601 0
M  V30 36 H  -35.3902 10.2266 15.9989 0
M  V30 37 H  -33.8350 10.8873 15.4342 0
M  V30 38 H  -32.8181 7.0472 17.6581 0
M  V30 39 H  -32.6208 4.9359 16.3621 0
M  V30 40 H  -34.1907 6.9420 12.8769 0
M  V30 41 H  -34.3903 9.0325 14.1496 0
M  V30 42 H  -31.1862 5.4068 13.1995 0
M  V30 43 H  -32.4852 2.6816 11.2056 0
M  V30 44 H  -29.2746 6.1778 7.6423 0
M  V30 45 H  -28.4732 8.1744 8.8366 0
M  V30 46 H  -29.0358 8.5116 11.2320 0
M  V30 47 H  -30.3873 6.8523 12.4355 0
M  V30 48 H  -30.1023 1.5894 10.0557 0
M  V30 49 H  -31.5614 -1.4068 8.9040 0
M  V30 50 H  -33.3735 -1.3882 7.2044 0
M  V30 51 H  -34.9707 -0.2010 5.8330 0
M  V30 52 H  -36.0155 1.9433 5.1150 0
M  V30 53 H  -35.1346 4.0949 5.9763 0
M  V30 54 H  -33.2494 4.1310 7.5542 0
M  V30 END ATOM
M  V30 BEGIN BOND
M  V30 1 1 1 2
M  V30 2 1 1 35
M  V30 3 1 1 36
M  V30 4 1 1 37
M  V30 5 1 2 3
M  V30 6 1 3 8
M  V30 7 2 3 4
M  V30 8 1 4 5
M  V30 9 1 4 38
M  V30 10 2 5 6
M  V30 11 1 5 39
M  V30 12 1 6 7
M  V30 13 1 6 9
M  V30 14 2 7 8
M  V30 15 1 7 40
M  V30 16 1 8 41
M  V30 17 2 9 10
M  V30 18 2 9 11
M  V30 19 1 9 12
M  V30 20 1 12 13
M  V30 21 1 12 42
M  V30 22 1 13 23
M  V30 23 2 13 14
M  V30 24 1 14 15
M  V30 25 1 14 43
M  V30 26 2 15 16
M  V30 27 1 15 24
M  V30 28 1 16 17
M  V30 29 1 16 18
M  V30 30 2 18 23
M  V30 31 1 18 19
M  V30 32 2 19 20
M  V30 33 1 19 44
M  V30 34 1 20 21
M  V30 35 1 20 45
M  V30 36 2 21 22
M  V30 37 1 21 46
M  V30 38 1 22 23
M  V30 39 1 22 47
M  V30 40 1 24 34
M  V30 41 2 24 25
M  V30 42 1 25 26
M  V30 43 1 25 27
M  V30 44 1 26 48
M  V30 45 2 27 28
M  V30 46 1 27 49
M  V30 47 1 28 29
M  V30 48 1 28 50
M  V30 49 2 29 34
M  V30 50 1 29 30
M  V30 51 2 30 31
M  V30 52 1 30 51
M  V30 53 1 31 32
M  V30 54 1 31 52
M  V30 55 2 32 33
M  V30 56 1 32 53
M  V30 57 1 33 34
M  V30 58 1 33 54
M  V30 END BOND
M  V30 END CTAB
M  END
$$$$
C9
                    3D
 Schrodinger Suite 2021-2.
  0  0  0     0  0            999 V3000
M  V30 BEGIN CTAB
M  V30 COUNTS 55 59 0 0 0
M  V30 BEGIN ATOM
M  V30 1 C  -33.8376 0.4379 5.4720 0
M  V30 2 O  -33.1979 0.0239 6.6699 0
M  V30 3 C  -32.8897 0.9751 7.6130 0
M  V30 4 C  -32.2904 0.5145 8.8041 0
M  V30 5 C  -32.0144 1.4031 9.8601 0
M  V30 6 C  -32.3174 2.7682 9.7122 0
M  V30 7 C  -32.8143 3.2609 8.4900 0
M  V30 8 C  -33.1389 2.3627 7.4563 0
M  V30 9 S  -32.1208 3.8693 11.1057 0
M  V30 10 O  -32.7932 5.1402 10.8043 0
M  V30 11 O  -32.4144 3.1402 12.3501 0
M  V30 12 N  -30.4230 4.1783 11.0976 0
M  V30 13 C  -29.8229 5.4010 10.7886 0
M  V30 14 C  -29.6669 6.3540 11.8104 0
M  V30 15 C  -29.0519 7.5986 11.5649 0
M  V30 16 C  -28.5981 7.8901 10.2539 0
M  V30 17 O  -28.0697 9.1297 10.0043 0
M  V30 18 C  -28.7037 6.9165 9.2242 0
M  V30 19 C  -28.1630 7.1402 7.9350 0
M  V30 20 C  -28.3019 6.1929 6.9063 0
M  V30 21 C  -28.9871 4.9955 7.1568 0
M  V30 22 C  -29.4978 4.7402 8.4398 0
M  V30 23 C  -29.3446 5.6781 9.4870 0
M  V30 24 C  -28.8989 8.5594 12.6832 0
M  V30 25 C  -30.0519 9.1402 13.2716 0
M  V30 26 O  -31.3004 8.8435 12.8043 0
M  V30 27 C  -29.9410 10.0548 14.3348 0
M  V30 28 C  -28.6760 10.4214 14.8199 0
M  V30 29 C  -27.5163 9.8522 14.2636 0
M  V30 30 C  -26.2535 10.2221 14.7725 0
M  V30 31 C  -25.0821 9.6470 14.2469 0
M  V30 32 C  -25.1712 8.7027 13.2094 0
M  V30 33 C  -26.4287 8.3402 12.6920 0
M  V30 34 C  -27.6199 8.9117 13.2037 0
M  V30 35 H  -34.0143 -0.4362 4.8467 0
M  V30 36 H  -33.2147 1.1269 4.9011 0
M  V30 37 H  -34.8040 0.9024 5.6721 0
M  V30 38 H  -32.0844 -0.5397 8.9229 0
M  V30 39 H  -31.6142 1.0274 10.7898 0
M  V30 40 H  -32.9865 4.3170 8.3488 0
M  V30 41 H  -33.5561 2.7630 6.5435 0
M  V30 42 H  -29.9345 3.4318 10.6267 0
M  V30 43 H  -30.0202 6.1266 12.8060 0
M  V30 44 H  -28.2240 9.4384 9.1016 0
M  V30 45 H  -27.6144 8.0441 7.7167 0
M  V30 46 H  -27.8835 6.3894 5.9298 0
M  V30 47 H  -29.1084 4.2627 6.3736 0
M  V30 48 H  -30.0020 3.8012 8.5992 0
M  V30 49 H  -31.2715 8.5098 11.9188 0
M  V30 50 H  -30.8301 10.4938 14.7630 0
M  V30 51 H  -28.5981 11.1401 15.6210 0
M  V30 52 H  -26.1774 10.9480 15.5693 0
M  V30 53 H  -24.1170 9.9307 14.6401 0
M  V30 54 H  -24.2762 8.2546 12.8052 0
M  V30 55 H  -26.4574 7.6160 11.8924 0
M  V30 END ATOM
M  V30 BEGIN BOND
M  V30 1 1 1 2
M  V30 2 1 1 35
M  V30 3 1 1 36
M  V30 4 1 1 37
M  V30 5 1 2 3
M  V30 6 1 3 8
M  V30 7 2 3 4
M  V30 8 1 4 5
M  V30 9 1 4 38
M  V30 10 2 5 6
M  V30 11 1 5 39
M  V30 12 1 6 7
M  V30 13 1 6 9
M  V30 14 2 7 8
M  V30 15 1 7 40
M  V30 16 1 8 41
M  V30 17 2 9 10
M  V30 18 2 9 11
M  V30 19 1 9 12
M  V30 20 1 12 13
M  V30 21 1 12 42
M  V30 22 1 13 23
M  V30 23 2 13 14
M  V30 24 1 14 15
M  V30 25 1 14 43
M  V30 26 2 15 16
M  V30 27 1 15 24
M  V30 28 1 16 17
M  V30 29 1 16 18
M  V30 30 1 17 44
M  V30 31 2 18 23
M  V30 32 1 18 19
M  V30 33 2 19 20
M  V30 34 1 19 45
M  V30 35 1 20 21
M  V30 36 1 20 46
M  V30 37 2 21 22
M  V30 38 1 21 47
M  V30 39 1 22 23
M  V30 40 1 22 48
M  V30 41 1 24 34
M  V30 42 2 24 25
M  V30 43 1 25 26
M  V30 44 1 25 27
M  V30 45 1 26 49
M  V30 46 2 27 28
M  V30 47 1 27 50
M  V30 48 1 28 29
M  V30 49 1 28 51
M  V30 50 2 29 34
M  V30 51 1 29 30
M  V30 52 2 30 31
M  V30 53 1 30 52
M  V30 54 1 31 32
M  V30 55 1 31 53
M  V30 56 2 32 33
M  V30 57 1 32 54
M  V30 58 1 33 34
M  V30 59 1 33 55
M  V30 END BOND
M  V30 END CTAB
M  END
$$$$
C9
                    3D
 Schrodinger Suite 2021-2.
  0  0  0     0  0            999 V3000
M  V30 BEGIN CTAB
M  V30 COUNTS 54 58 0 0 0
M  V30 BEGIN ATOM
M  V30 1 C  -33.7936 11.3209 17.0559 0
M  V30 2 O  -33.2457 11.3085 15.7465 0
M  V30 3 C  -33.3258 10.1231 15.0509 0
M  V30 4 C  -33.2158 10.1883 13.6461 0
M  V30 5 C  -33.3446 9.0259 12.8616 0
M  V30 6 C  -33.5652 7.7846 13.4898 0
M  V30 7 C  -33.6146 7.6916 14.8919 0
M  V30 8 C  -33.5095 8.8597 15.6704 0
M  V30 9 S  -33.8086 6.3268 12.4873 0
M  V30 10 O  -34.3860 5.2433 13.2990 0
M  V30 11 O  -34.4206 6.7404 11.2166 0
M  V30 12 N  -32.1898 5.8405 12.1230 0
M  V30 13 C  -31.7108 5.3615 10.8994 0
M  V30 14 C  -32.2279 4.1629 10.3599 0
M  V30 15 C  -31.7594 3.6549 9.1275 0
M  V30 16 C  -30.7845 4.3935 8.4193 0
M  V30 17 O  -30.3612 3.9405 7.2045 0
M  V30 18 C  -30.2300 5.5731 8.9622 0
M  V30 19 C  -29.2025 6.2584 8.2754 0
M  V30 20 C  -28.6341 7.4196 8.8226 0
M  V30 21 C  -29.1047 7.9259 10.0446 0
M  V30 22 C  -30.1295 7.2544 10.7350 0
M  V30 23 C  -30.6919 6.0639 10.2105 0
M  V30 24 C  -32.2221 2.3418 8.6137 0
M  V30 25 C  -31.6144 1.1579 9.0949 0
M  V30 26 O  -30.6048 1.2181 10.0042 0 CHG=-1
M  V30 27 C  -31.9771 -0.1073 8.6048 0
M  V30 28 C  -32.9504 -0.2164 7.6045 0
M  V30 29 C  -33.5790 0.9351 7.1071 0
M  V30 30 C  -34.5663 0.8029 6.1099 0
M  V30 31 C  -35.2137 1.9447 5.6105 0
M  V30 32 C  -34.8618 3.2119 6.0941 0
M  V30 33 C  -33.8528 3.3482 7.0642 0
M  V30 34 C  -33.2123 2.2142 7.6039 0
M  V30 35 H  -33.8081 12.3397 17.4424 0
M  V30 36 H  -33.2143 10.7069 17.7413 0
M  V30 37 H  -34.8156 10.9498 17.0540 0
M  V30 38 H  -33.0594 11.1426 13.1644 0
M  V30 39 H  -33.2881 9.0928 11.7844 0
M  V30 40 H  -33.7691 6.7358 15.3700 0
M  V30 41 H  -33.5794 8.7605 16.7429 0
M  V30 42 H  -31.5137 6.4379 12.5735 0
M  V30 43 H  -32.9680 3.6048 10.9131 0
M  V30 44 H  -30.6213 3.0417 7.0740 0
M  V30 45 H  -28.8354 5.8998 7.3248 0
M  V30 46 H  -27.8543 7.9402 8.2859 0
M  V30 47 H  -28.6878 8.8399 10.4419 0
M  V30 48 H  -30.4701 7.6793 11.6665 0
M  V30 49 H  -31.4866 -0.9941 8.9791 0
M  V30 50 H  -33.2158 -1.1925 7.2279 0
M  V30 51 H  -34.8339 -0.1734 5.7317 0
M  V30 52 H  -35.9725 1.8606 4.8499 0
M  V30 53 H  -35.3402 4.0936 5.6940 0
M  V30 54 H  -33.5916 4.3382 7.4044 0
M  V30 END ATOM
M  V30 BEGIN BOND
M  V30 1 1 1 2
M  V30 2 1 1 35
M  V30 3 1 1 36
M  V30 4 1 1 37
M  V30 5 1 2 3
M  V30 6 1 3 8
M  V30 7 2 3 4
M  V30 8 1 4 5
M  V30 9 1 4 38
M  V30 10 2 5 6
M  V30 11 1 5 39
M  V30 12 1 6 7
M  V30 13 1 6 9
M  V30 14 2 7 8
M  V30 15 1 7 40
M  V30 16 1 8 41
M  V30 17 2 9 10
M  V30 18 2 9 11
M  V30 19 1 9 12
M  V30 20 1 12 13
M  V30 21 1 12 42
M  V30 22 1 13 23
M  V30 23 2 13 14
M  V30 24 1 14 15
M  V30 25 1 14 43
M  V30 26 2 15 16
M  V30 27 1 15 24
M  V30 28 1 16 17
M  V30 29 1 16 18
M  V30 30 1 17 44
M  V30 31 2 18 23
M  V30 32 1 18 19
M  V30 33 2 19 20
M  V30 34 1 19 45
M  V30 35 1 20 21
M  V30 36 1 20 46
M  V30 37 2 21 22
M  V30 38 1 21 47
M  V30 39 1 22 23
M  V30 40 1 22 48
M  V30 41 1 24 34
M  V30 42 2 24 25
M  V30 43 1 25 26
M  V30 44 1 25 27
M  V30 45 2 27 28
M  V30 46 1 27 49
M  V30 47 1 28 29
M  V30 48 1 28 50
M  V30 49 2 29 34
M  V30 50 1 29 30
M  V30 51 2 30 31
M  V30 52 1 30 51
M  V30 53 1 31 32
M  V30 54 1 31 52
M  V30 55 2 32 33
M  V30 56 1 32 53
M  V30 57 1 33 34
M  V30 58 1 33 54
M  V30 END BOND
M  V30 END CTAB
M  END
$$$$
